70

C          7.01055       -2.64054       -3.44992
C          7.17593       -1.31884       -2.69610
C          7.79917       -1.48996       -1.30632
C          7.95695       -0.17603       -0.53436
C          8.59921       -0.35545        0.84477
C          8.74593        0.94982        1.63340
C          9.44181        0.75846        2.98488
C          9.56408        2.05217        3.79531
C         10.30979        1.88853        5.14315
C         11.73948        1.51418        4.97561
N         12.73907        2.36855        4.64008
C         13.92754        1.66980        4.53278
C         13.64299        0.36166        4.77430
N         12.28604        0.27977        5.04273
C         11.61502       -0.96507        5.46332
C         11.96350       -1.34711        6.90625
C         11.46805       -0.34296        7.96999
C         10.01675       -0.21061        7.98987
C          8.80860       -0.13008        7.97436
C         12.63596        3.81794        4.72122
C         12.56297        4.22813        6.22522
O         12.64679        3.35136        7.08607
N         12.38941        5.54852        6.47990
C         12.17908        5.97421        7.87639
C         10.71496        6.30690        8.19726
C          9.72868        5.16072        7.93992
C          8.29425        5.50790        8.34578
C         12.21485        6.55793        5.43861
H          6.56540       -2.48479       -4.44190
H          6.35927       -3.33562       -2.89955
H          7.97914       -3.14159       -3.59638
H          6.19436       -0.82578       -2.59518
H          7.79944       -0.62943       -3.29044
H          8.78706       -1.97372       -1.40880
H          7.18198       -2.18882       -0.71461
H          6.96833        0.30142       -0.41856
H          8.56414        0.52762       -1.13049
H          9.59394       -0.82057        0.72305
H          8.00178       -1.07114        1.43612
H          7.75018        1.39751        1.79327
H          9.31436        1.68160        1.03285
H         10.44456        0.33121        2.80469
H          8.88944        0.00826        3.57779
H          8.56259        2.44743        4.02360
H         10.06298        2.82277        3.18349
H          9.81082        1.13668        5.76925
H         10.26349        2.81961        5.72565
H         14.86454        2.15804        4.29515
H         14.28158       -0.51301        4.77069
H         11.92481       -1.75193        4.76360
H         10.53490       -0.82461        5.34506
H         13.05209       -1.47025        7.00930
H         11.51330       -2.33238        7.09481
H         11.93013        0.64808        7.81878
H         11.81197       -0.68308        8.95926
H          7.74080       -0.06288        8.00422
H         11.75147        4.15658        4.16653
H         13.51712        4.24693        4.22718
H         12.81925        6.85093        8.05709
H         12.53673        5.15381        8.50954
H         10.39599        7.20367        7.63915
H         10.68016        6.59345        9.26082
H         10.06574        4.25828        8.47477
H          9.74494        4.90018        6.86595
H          8.22338        5.71089        9.42376
H          7.60310        4.68531        8.11825
H          7.93241        6.40188        7.81753
H         12.84109        6.34907        4.56366
H         12.53076        7.52981        5.83663
H         11.16564        6.64827        5.11440
