51

F          0.86673        0.07648       -0.56323
C          2.18261       -0.32506       -0.80739
C          3.03415        0.91210       -1.06685
C          4.49892        0.55218       -1.33623
C          5.44051        1.72995       -1.62304
C          5.45107        2.85399       -0.57302
N          4.53615        3.92010       -1.03403
C          4.31122        3.92947       -2.33341
S          4.98524        2.61323       -3.19257
C          3.52618        4.98145       -3.04926
C          2.01125        4.67512       -2.99183
C          1.12655        5.63953       -3.79746
C          0.59120        6.93720       -3.07670
C          1.57375        8.07450       -2.59712
C          2.49295        8.79636       -3.65063
F          1.79146        9.18469       -4.71875
F          3.05260        9.86486       -3.06727
F          3.48642        7.96533       -4.05206
F          0.80972        9.01653       -2.01044
F          2.40565        7.54236       -1.63092
F         -0.31913        7.51307       -3.89147
F         -0.04165        6.51197       -1.93984
F          1.74054        6.00890       -4.96355
F         -0.00740        4.95267       -4.13255
C          4.10494        4.97019       -0.09232
C          5.22552        5.98671        0.16837
C          4.76054        7.11207        1.09612
S          6.17594        8.18825        1.43778
O          7.10304        7.47486        2.29126
O          6.58655        8.76972        0.18571
O          5.46365        9.34916        2.30676
H          2.17258       -1.00073       -1.67775
H          2.53203       -0.88510        0.07491
H          2.94250        1.57451       -0.19043
H          2.60227        1.44666       -1.92791
H          4.56714       -0.15651       -2.17723
H          4.92466        0.02247       -0.46606
H          6.46088        1.35820       -1.77811
H          6.45619        3.28904       -0.45874
H          5.11800        2.49163        0.40934
H          3.84803        5.00219       -4.09848
H          3.76057        5.96268       -2.62225
H          1.63408        4.64107       -1.96098
H          1.82517        3.68614       -3.43380
H          3.80183        4.46253        0.83474
H          3.21414        5.45836       -0.50231
H          5.56089        6.41837       -0.78648
H          6.09222        5.48175        0.62070
H          4.40459        6.74047        2.06696
H          3.98640        7.74400        0.63980
H          5.79968        9.28722        3.22263
