71

C          0.19897        4.87153       -5.09838
C          0.58473        4.13181       -3.81630
C          2.09389        3.88763       -3.70871
C          2.47516        3.18586       -2.38273
C          3.95018        2.94760       -2.24209
C          4.77976        3.90599       -1.65102
C          6.15768        3.71927       -1.50983
C          6.69328        2.50422       -1.97830
C          5.86889        1.58012       -2.57884
N          4.53113        1.80583       -2.72229
C          3.77024        0.72265       -3.40727
C          3.59663       -0.50960       -2.51151
C          3.24302       -1.74018       -3.36332
S          3.79187       -3.30664       -2.63885
C          5.54301       -3.30539       -3.04188
S          6.30240       -2.00894       -3.80058
N          6.17451       -4.44757       -2.69803
C          5.47158       -5.58537       -2.07571
C          5.38410       -5.53796       -0.54330
C          4.58967       -6.72669        0.00885
C          4.46769       -6.70001        1.53348
C          7.61765       -4.60959       -2.96637
C          8.53130       -4.10073       -1.84498
C         10.01069       -4.21984       -2.22651
C         10.94976       -3.76150       -1.10894
C          7.03377        4.77371       -0.88434
C          8.09693        5.31909       -1.85746
C          7.56954        5.89233       -3.16072
Br         6.18644        7.26519       -2.93376
Br         9.18744        6.64154       -0.89265
H         -0.88659        5.02355       -5.15211
H          0.50121        4.30928       -5.99369
H          0.67584        5.86097       -5.14714
H          0.05497        3.16574       -3.76809
H          0.24891        4.70877       -2.93902
H          2.63490        4.84555       -3.77239
H          2.43572        3.28547       -4.56728
H          1.91326        2.24709       -2.27418
H          2.16578        3.82653       -1.54414
H          4.31817        4.82666       -1.29334
H          7.75342        2.27182       -1.87962
H          6.22285        0.61889       -2.96261
H          4.37062        0.44231       -4.28391
H          2.82019        1.13153       -3.76222
H          2.83643       -0.33447       -1.73607
H          4.55229       -0.70171       -2.00607
H          3.70348       -1.67436       -4.35909
H          2.15742       -1.86519       -3.48313
H          5.99916       -6.49588       -2.39389
H          4.45995       -5.64459       -2.50850
H          4.90687       -4.59521       -0.23222
H          6.39751       -5.53678       -0.11324
H          5.07255       -7.66650       -0.30696
H          3.58428       -6.73407       -0.44376
H          5.45667       -6.72892        2.01345
H          3.89440       -7.56084        1.90146
H          3.95754       -5.78783        1.87611
H          7.84036       -4.07189       -3.89795
H          7.78681       -5.68221       -3.13981
H          8.34247       -4.66618       -0.91881
H          8.28409       -3.04810       -1.63556
H         10.19778       -3.62724       -3.13704
H         10.23815       -5.26602       -2.49108
H         10.76989       -2.70910       -0.84356
H         12.00183       -3.85384       -1.40932
H         10.80989       -4.36230       -0.19847
H          7.55684        4.34480       -0.01645
H          6.41930        5.60852       -0.52310
H          8.81801        4.53164       -2.12146
H          7.10050        5.10352       -3.76323
H          8.36881        6.36429       -3.73879
