84

C         -0.47927      -13.56790        3.15558
C          1.02880      -13.82616        3.17244
C          1.84716      -12.67257        2.58381
C          3.35509      -12.93817        2.56042
C          4.17442      -11.77900        1.98551
C          5.67417      -12.07506        1.88924
C          6.49273      -10.91216        1.32072
C          7.97749      -11.23959        1.13715
C          8.79517      -10.07992        0.56069
C         10.25644      -10.44355        0.28229
C         11.07457       -9.29540       -0.31552
C         12.50462       -9.69871       -0.68851
C         13.32179       -8.55257       -1.29439
C         14.76341       -8.92578       -1.67397
C         14.90588       -9.98574       -2.78186
C         14.38305       -9.52050       -4.14785
C         14.41891      -10.60615       -5.23624
N         15.78552      -11.13983       -5.41526
C         16.40136      -11.28899       -6.59553
N         17.53043      -12.03965       -6.66445
N         15.95409      -10.66827       -7.68031
C         14.86019       -9.67042       -7.64046
C         13.83247      -10.19868       -6.60539
C         15.42531       -8.28617       -7.19936
C         16.29115       -7.46289       -8.17114
C         17.66854       -7.99436       -8.52402
F         17.58984       -9.09529       -9.41564
C         14.23873       -9.60671       -9.07728
C         14.08219      -10.97981       -9.75966
O         15.34698      -11.55918      -10.15060
C         12.90829       -8.84184       -9.11187
H         -1.03843      -14.40830        3.58946
H         -0.84535      -13.41860        2.12870
H         -0.73497      -12.66547        3.73084
H          1.25089      -14.74983        2.61151
H          1.36075      -14.01362        4.20752
H          1.64516      -11.75224        3.15990
H          1.49870      -12.46756        1.55590
H          3.55262      -13.85077        1.97050
H          3.70420      -13.15916        3.58433
H          4.01686      -10.87805        2.60388
H          3.79170      -11.52654        0.98079
H          5.82577      -12.96847        1.25793
H          6.06176      -12.34163        2.88799
H          6.38839      -10.03344        1.98076
H          6.06723      -10.61100        0.34706
H          8.07297      -12.11610        0.47181
H          8.41001      -11.54680        2.10526
H          8.75474       -9.22175        1.25350
H          8.32417       -9.73445       -0.37659
H         10.28624      -11.30684       -0.40665
H         10.73525      -10.78618        1.21609
H         11.10447       -8.45308        0.39672
H         10.56045       -8.91219       -1.21507
H         12.45467      -10.54747       -1.39323
H         13.02545      -10.08105        0.20673
H         13.36447       -7.72349       -0.57015
H         12.78803       -8.14444       -2.17023
H         15.28290       -9.29608       -0.77583
H         15.30527       -8.01673       -1.98411
H         14.38461      -10.91094       -2.48284
H         15.97781      -10.24014       -2.85710
H         14.93915       -8.62755       -4.47031
H         13.32911       -9.21590       -4.05363
H         13.80966      -11.44761       -4.86184
H         16.25600      -11.49176       -4.58756
H         17.66706      -12.80778       -6.01846
H         18.03247      -12.09009       -7.54313
H         16.22324      -11.01259       -8.61317
H         13.33932      -11.07708       -7.04605
H         13.05179       -9.44773       -6.43290
H         16.00286       -8.43829       -6.27477
H         14.56664       -7.66117       -6.91272
H         16.46526       -6.48903       -7.68405
H         15.75155       -7.22458       -9.10016
H         18.22058       -8.34121       -7.63569
H         18.26265       -7.22532       -9.03744
H         14.96055       -9.05719       -9.70148
H         13.42950      -10.87438      -10.63955
H         13.61025      -11.72068       -9.09722
H         15.63447      -11.14223      -10.97892
H         12.09638       -9.39894       -8.62369
H         12.60481       -8.66894      -10.15251
H         12.98190       -7.85979       -8.62673
