62

C          0.80830        0.17931        4.98203
C          1.67687        1.15764        4.18700
C          3.01795        0.54656        3.75694
C          3.88865        1.53708        3.00635
O          5.12113        0.87317        2.62884
C          6.02644        1.68013        1.96276
N          6.69034        2.66628        2.86497
C          6.66838        4.02772        2.65402
C          7.35562        4.59962        3.67635
N          7.78778        3.58202        4.51778
C          7.38307        2.38811        3.99775
C          7.60244        1.01290        4.54700
C          8.18573       -0.00943        3.55465
O          9.13178        0.66211        2.74255
C         10.02232       -0.21806        2.04753
C         11.02428        0.61192        1.27635
O         11.86969        1.28314        2.19391
C         12.82465        2.11487        1.54716
C          8.60648        3.87695        5.76932
C         10.14167        3.61866        5.51599
C         10.64712        2.20080        5.82921
C         10.61331        4.01378        4.10629
C          8.36343        5.36088        6.17057
O          8.98445        6.30705        5.30291
C          8.01663        3.11345        6.97263
H         -0.14521        0.64024        5.27057
H          1.31258       -0.14775        5.90322
H          0.57756       -0.71984        4.39255
H          1.86103        2.06168        4.79165
H          1.12704        1.49582        3.29328
H          2.84496       -0.33402        3.11846
H          3.56771        0.18937        4.64358
H          4.11938        2.41239        3.64112
H          3.39000        1.90169        2.08944
H          5.56190        2.28761        1.16706
H          6.80563        1.04026        1.53136
H          6.17673        4.46966        1.79598
H          7.60941        5.63550        3.86342
H          6.64886        0.62514        4.93862
H          8.29551        1.09272        5.38275
H          7.39479       -0.48794        2.94812
H          8.66632       -0.81108        4.14466
H          9.46116       -0.86438        1.34673
H         10.54732       -0.86519        2.77373
H         10.49300        1.33800        0.62805
H         11.60703       -0.06071        0.61549
H         13.42949        2.57976        2.33457
H         12.33459        2.90765        0.95190
H         13.48743        1.53255        0.88227
H         10.62870        4.29963        6.23464
H         10.35266        1.48019        5.05523
H         10.33912        1.83153        6.81571
H         11.74492        2.21455        5.82461
H         10.23881        3.30895        3.35068
H         11.70894        3.95467        4.07019
H         10.32654        5.03404        3.83355
H          8.76958        5.45978        7.18819
H          7.27250        5.53503        6.22898
H          9.07643        7.14592        5.77954
H          8.09775        2.02795        6.90848
H          6.95606        3.36779        7.10612
H          8.55358        3.41415        7.88114
