68

C          4.48592       -3.34548       -5.58903
C          4.48065       -1.83111       -5.36651
C          5.65305       -1.33916       -4.50940
C          5.65341        0.17621       -4.28394
C          6.78343        0.66494       -3.37037
C          6.75712        2.18164       -3.13906
C          7.71316        2.68440       -2.04593
C          9.19626        2.53139       -2.33085
O          9.56030        3.40889       -3.43712
C         10.93570        3.40752       -3.68869
P         11.18731        4.41879       -5.19620
C         10.39049        6.04419       -4.98295
C         10.36428        6.95720       -6.22747
O         11.69886        7.11884       -6.75662
C         12.42151        8.18269       -6.25725
O         12.02872        8.87823       -5.34796
C         13.72967        8.35111       -6.98808
S         13.48353        9.14797       -8.61750
C          9.48035        6.42964       -7.35723
O          9.49391        7.31547       -8.48131
C          8.57507        8.33922       -8.44816
O          7.77681        8.48940       -7.54939
C          8.73258        9.22697       -9.65770
S          9.82639       10.64401       -9.26753
C         12.94655        4.51565       -5.63452
C         13.70320        3.17290       -5.77923
C         13.08635        2.26612       -6.85373
C         15.17323        3.48954       -6.09336
H          3.62917       -3.66482       -6.19770
H          4.43502       -3.89017       -4.63463
H          5.40022       -3.67177       -6.10692
H          3.53375       -1.53288       -4.88575
H          4.49921       -1.31376       -6.34083
H          6.60407       -1.64210       -4.98309
H          5.62725       -1.85284       -3.53218
H          4.68602        0.47827       -3.84635
H          5.71604        0.69285       -5.25808
H          7.75313        0.35588       -3.79959
H          6.70681        0.14887       -2.39703
H          5.73707        2.47627       -2.84558
H          6.95773        2.70978       -4.08607
H          7.51726        2.13809       -1.10813
H          7.51453        3.74523       -1.82611
H          9.46438        1.49590       -2.60672
H          9.79383        2.82134       -1.44881
H         11.34594        2.39850       -3.89912
H         11.53969        3.85124       -2.86915
H         10.49487        3.73211       -6.21705
H         10.92918        6.55288       -4.16812
H          9.37138        5.83591       -4.62115
H          9.99958        7.93960       -5.89339
H         14.18094        7.37721       -7.21869
H         14.41361        8.93547       -6.36372
H         12.96628       10.30147       -8.13254
H          8.45279        6.30423       -6.98324
H          9.85330        5.47516       -7.75509
H          7.75108        9.58653       -9.98461
H          9.22677        8.69171      -10.47617
H          8.94525       11.28533       -8.46349
H         13.40878        5.15655       -4.86542
H         12.97343        5.08602       -6.57586
H         13.67271        2.64656       -4.81004
H         13.04164        2.77712       -7.82766
H         12.06995        1.92727       -6.60196
H         13.69527        1.36270       -6.98457
H         15.26705        4.01216       -7.05734
H         15.75817        2.56315       -6.15981
H         15.63017        4.11932       -5.31759
