50

N          2.36722        0.96689       -3.75851
C          1.60842        0.94540       -2.48918
C          2.25438        0.00158       -1.45888
C          3.79282        0.00481       -1.51146
O          4.41958       -0.53221       -0.35955
C          4.47667        0.35504        0.72538
C          5.19740       -0.43763        1.84607
O          6.22161       -1.05297        1.66401
O          4.50716       -0.32747        2.98895
C          5.05114       -1.03976        4.15946
C          6.14984       -0.25020        4.85696
C          5.73688        1.14455        5.34215
C          6.89253        1.90872        5.99208
N          5.24477        1.57267        0.36209
C          5.07079        2.04436       -0.89758
N          5.58120        3.22763       -1.27076
N          4.35220        1.33078       -1.77378
C          5.73513        2.43438        1.45821
C          7.15923        2.12918        1.95137
C          8.29900        2.27633        0.92013
C          8.54669        3.72491        0.54625
O          7.72163        4.41703       -0.03460
O          9.71377        4.28759        0.90425
H          1.94924        1.64168       -4.40067
H          2.30579        0.06319       -4.23326
H          0.54875        0.66480       -2.61121
H          1.61779        1.97227       -2.09453
H          1.93301       -1.03803       -1.61884
H          1.90858        0.28827       -0.45436
H          4.13433       -0.64750       -2.32809
H          3.47056        0.65646        1.07315
H          5.41259       -2.01846        3.81910
H          4.17083       -1.17008        4.80052
H          7.03025       -0.18609        4.19789
H          6.47221       -0.86163        5.71641
H          4.90343        1.05028        6.05710
H          5.33617        1.72879        4.49785
H          7.27941        1.37678        6.87276
H          6.57824        2.90818        6.32043
H          7.73429        2.03498        5.29380
H          6.34919        3.69428       -0.74243
H          5.49858        3.48820       -2.24666
H          4.13583        1.66722       -2.71883
H          5.04156        2.30548        2.30281
H          5.63579        3.48144        1.14772
H          7.20486        1.10303        2.33263
H          7.34401        2.78916        2.81295
H          8.04989        1.72306        0.00130
H          9.20675        1.80878        1.32641
H         10.28975        3.64041        1.34872
