57

O          4.20432        0.98247       -0.80225
C          4.29558        0.95339       -2.23195
C          2.85298        0.92525       -2.73312
C          2.16448       -0.43766       -2.46766
C          0.62091       -0.44586       -2.37371
N          0.01516        0.72041       -3.13896
C         -0.04727        0.29636       -4.58839
C         -0.41309       -1.19773       -4.48042
C         -0.03107       -1.68120       -3.04016
C         -1.21131       -2.32855       -2.24126
C         -1.74827       -3.57808       -3.04262
C         -0.66950       -4.57996       -3.49170
C         -2.86973       -4.34343       -2.31913
C         -0.71257       -2.70306       -0.82473
O          0.59111       -3.29076       -0.88180
C         -2.36989       -1.32888       -2.03452
Si        -1.18832        1.42450       -5.66583
C         -2.93545        1.33777       -4.96659
C         -0.50847        3.17264       -5.53728
C         -1.09371        0.73564       -7.40566
O          2.13492        2.03265       -2.14891
H          5.06367        1.22969       -0.42919
H          4.84381        0.06375       -2.58803
H          4.79521        1.85720       -2.61625
H          2.86680        1.12879       -3.81584
H          2.53061       -0.86153       -1.52268
H          2.49010       -1.12693       -3.26059
H          0.31989       -0.30987       -1.32783
H          0.58055        1.57175       -2.92679
H         -0.93748        0.87790       -2.78635
H          0.98113        0.40635       -4.96548
H          0.11260       -1.77104       -5.25248
H         -1.48507       -1.35126       -4.66097
H          0.74774       -2.44654       -3.10610
H         -2.20462       -3.16172       -3.95855
H         -0.14479       -5.02354       -2.63594
H          0.08800       -4.13775       -4.15231
H         -1.14258       -5.39505       -4.05553
H         -2.49488       -4.89313       -1.44356
H         -3.29834       -5.09055       -3.00002
H         -3.69561       -3.70011       -1.98994
H         -1.43684       -3.38983       -0.35855
H         -0.69078       -1.79415       -0.19192
H          0.77787       -3.70452       -0.02583
H         -2.86465       -1.06371       -2.97829
H         -2.03538       -0.40262       -1.53804
H         -3.14457       -1.74342       -1.37736
H         -3.00075        1.65596       -3.91525
H         -3.36827        0.33168       -5.04874
H         -3.58377        2.01758       -5.53812
H         -0.54374        3.56058       -4.50870
H         -1.10387        3.85783       -6.15728
H          0.53147        3.23179       -5.88779
H         -1.45870       -0.29970       -7.44968
H         -0.06409        0.75312       -7.78901
H         -1.71165        1.33567       -8.08804
H          2.45660        2.10543       -1.22784
