114

C          0.70676       -1.34791        0.64409
C          2.22931       -1.19041        0.65454
C          2.76288       -0.47274        1.89974
C          4.28585       -0.30855        1.90032
C          4.84140        0.41014        3.13464
C          6.36443        0.57199        3.09566
C          6.96043        1.27953        4.31731
C          8.48457        1.41880        4.23551
C          9.12733        2.06998        5.46451
C         10.65430        2.16405        5.35479
C         11.32341        2.75084        6.60599
C         12.83528        2.76911        6.47894
O         13.40474        3.27961        7.71638
C         14.80461        3.34311        7.68770
P         15.28512        4.23924        9.21369
C         14.66093        3.39109       10.69178
C         14.98315        4.09687       12.02646
C         14.43233        5.52265       12.15929
C         14.66269        6.12539       13.55079
C         14.08575        7.53721       13.70688
C         14.37493        8.16409       15.07567
C         13.80387        9.57716       15.23913
C         14.15493       10.22464       16.58341
C         13.57728       11.63282       16.76051
C         13.93559       12.27772       18.10393
C         13.34728       13.67994       18.29064
C         13.70282       14.32449       19.63545
C         13.10088       15.72020       19.81807
C         17.07759        4.52267        9.28688
C         17.68811        5.23994        8.06526
C         17.18953        6.67362        7.84797
C         17.90470        7.38595        6.69423
C         17.46311        8.84297        6.51849
C         18.11071        9.53684        5.31570
C         17.70306       11.00662        5.16939
C         18.30942       11.69351        3.94186
C         17.92355       13.17138        3.81294
C         18.52353       13.84881        2.57857
H          0.36182       -1.86515       -0.26190
H          0.20323       -0.37026        0.67989
H          0.35866       -1.92967        1.51076
H          2.54834       -0.63703       -0.24519
H          2.70321       -2.18403        0.57934
H          2.45239       -1.02863        2.80231
H          2.28685        0.52073        1.97975
H          4.59058        0.24325        0.99334
H          4.75821       -1.30359        1.81787
H          4.55320       -0.14578        4.04429
H          4.36795        1.40368        3.22508
H          6.64514        1.12692        2.18299
H          6.83040       -0.42434        2.99479
H          6.69103        0.72256        5.23197
H          6.50338        2.27882        4.42545
H          8.74753        2.00072        3.33463
H          8.92854        0.41861        4.08637
H          8.86220        1.49070        6.36609
H          8.70503        3.07854        5.61544
H         10.91901        2.77320        4.47332
H         11.06213        1.15661        5.16193
H         11.04927        2.15340        7.49036
H         10.96199        3.77571        6.78672
H         13.16331        3.41911        5.64666
H         13.23237        1.75323        6.30002
H         15.19824        3.91710        6.82441
H         15.29801        2.34884        7.68657
H         14.62757        5.48326        9.11282
H         15.08559        2.37462       10.66024
H         13.57542        3.29286       10.53228
H         16.07126        4.09097       12.19958
H         14.55580        3.46532       12.82041
H         13.35221        5.52138       11.93146
H         14.89927        6.18955       11.41056
H         15.74598        6.14674       13.76304
H         14.21842        5.46061       14.31123
H         12.99499        7.50636       13.53912
H         14.49537        8.19040       12.91577
H         15.46693        8.19237       15.23722
H         13.96975        7.51257       15.86941
H         12.70619        9.54385       15.12409
H         14.17382       10.21791       14.41910
H         15.25343       10.26565       16.69013
H         13.79720        9.57863       17.40434
H         12.47851       11.59181       16.65771
H         13.93240       12.27992       15.93892
H         15.03453       12.32672       18.20302
H         13.58889       11.62519       18.92468
H         12.24829       13.63039       18.19122
H         13.69354       14.33446       17.47096
H         14.80059       14.38082       19.73120
H         13.36314       13.66662       20.45342
H         13.44744       16.41076       19.03459
H         13.37704       16.15490       20.78855
H         12.00207       15.69094       19.76833
H         17.53170        3.53093        9.44473
H         17.24958        5.10014       10.20978
H         17.53304        4.63735        7.15598
H         18.77713        5.25410        8.22550
H         17.32658        7.25087        8.77912
H         16.10335        6.68067        7.64348
H         17.72668        6.83059        5.75690
H         18.99419        7.35072        6.86543
H         17.69919        9.40677        7.43796
H         16.36444        8.88384        6.41238
H         17.84576        8.98934        4.39412
H         19.20931        9.46942        5.40149
H         17.99858       11.55775        6.07953
H         16.60196       11.07691        5.11897
H         17.99665       11.15441        3.03002
H         19.40975       11.60697        3.97971
H         18.24361       13.70913        4.72157
H         16.82393       13.25771        3.78368
H         19.62287       13.80998        2.59568
H         18.23044       14.90573        2.51763
H         18.19051       13.35837        1.65173
