82

C          1.22946        6.74823       -7.12694
C          2.74957        6.84100       -6.97596
C          3.21934        6.79387       -5.51779
C          4.73735        6.91936       -5.35537
C          5.20231        6.88231       -3.89618
C          6.71451        7.06055       -3.72580
C          7.16799        7.03256       -2.26277
C          8.67500        7.24062       -2.07697
C          9.10873        7.20561       -0.60834
C         10.61903        7.36988       -0.40025
C         11.00847        7.34938        1.08365
C         12.52153        7.26743        1.34674
C         13.33316        8.46831        0.84792
N         13.03596        9.67912        1.69384
C         13.66762       10.94279        1.17979
C         12.76299       11.49722        0.06295
N         11.36500       11.37053        0.50484
C         13.32393        9.38249        3.13948
C         12.54921        8.13792        3.57768
O         12.83722        7.03045        2.72767
C         12.92426        7.73395        5.00146
O         12.56873        8.81513        5.83789
C         12.79642        8.54962        7.23301
C         12.25954        9.71459        8.04757
C         12.50935        9.54810        9.55168
C         11.91220       10.68548       10.38849
C         12.20413       10.56298       11.88739
C         11.59017       11.68966       12.72649
C         11.91624       11.58164       14.21822
H          0.92612        6.78071       -8.18229
H          0.72606        7.58010       -6.61177
H          0.84051        5.81260       -6.69837
H          3.10991        7.77392       -7.44197
H          3.22737        6.02021       -7.53724
H          2.87715        5.85148       -5.05466
H          2.72536        7.60319       -4.95099
H          5.07572        7.86166       -5.82166
H          5.23441        6.10974       -5.91829
H          4.89294        5.92673       -3.43769
H          4.67844        7.67146       -3.32818
H          7.02245        8.01587       -4.18668
H          7.24301        6.27056       -4.28772
H          6.87726        6.06895       -1.80946
H          6.62085        7.80759       -1.69738
H          8.96952        8.20583       -2.52698
H          9.22384        6.46540       -2.63938
H          8.79024        6.25059       -0.15713
H          8.57464        7.99408       -0.04907
H         10.94478        8.31569       -0.87057
H         11.15130        6.56536       -0.93649
H         10.56505        6.46684        1.56964
H         10.55618        8.22322        1.58314
H         12.91631        6.38374        0.82205
H         13.09465        8.70791       -0.19517
H         14.40975        8.27119        0.93764
H         12.01233        9.92192        1.56665
H         14.69106       10.73893        0.84303
H         13.70834       11.64081        2.02727
H         12.89141       10.91520       -0.85974
H         13.07735       12.52682       -0.16549
H         10.72902       11.24700       -0.28115
H         11.04981       12.19338        1.01984
H         13.02713       10.25121        3.73985
H         14.40857        9.22511        3.23388
H         11.46748        8.37015        3.56968
H         14.00766        7.50490        5.05876
H         12.37251        6.81116        5.26061
H         13.88051        8.40748        7.40757
H         12.28684        7.60749        7.51153
H         11.17908        9.81354        7.85383
H         12.73124       10.64545        7.69180
H         13.59526        9.48743        9.73960
H         12.08784        8.58676        9.89293
H         10.82029       10.71915       10.22865
H         12.30126       11.65126       10.02044
H         13.29688       10.54553       12.04579
H         11.83117        9.59094       12.25559
H         10.49587       11.69100       12.58650
H         11.94421       12.66144       12.34209
H         11.54506       10.63650       14.64167
H         11.46071       12.40163       14.78983
H         13.00167       11.61765       14.39385
