60

C          2.01260        0.63642        1.56104
C          3.31196        0.03769        1.01909
C          3.62414       -1.34742        1.59962
C          4.96109       -1.91178        1.09918
C          5.20617       -3.31249        1.62100
O          6.55150       -3.73582        1.17535
C          6.78603       -5.03539        1.07485
O          5.99022       -5.92833        1.34238
C          8.19716       -5.31646        0.53835
N          9.02801       -6.16912        1.39133
C          8.86037       -7.50465        1.45233
N          7.69675       -8.07036        1.12809
N          9.94377       -8.24672        1.77053
C         11.21473       -7.53262        1.88886
O         11.01119       -6.39523        2.72121
C         10.05222       -5.48250        2.24697
C          9.42814       -4.79722        3.48275
C          8.82730       -5.77055        4.47008
C          9.63430       -6.40810        5.42618
C          9.09604       -7.34010        6.31175
C          7.73165       -7.67347        6.27961
C          6.92673       -7.02930        5.32864
C          7.46328       -6.09107        4.44445
C          7.14623       -8.65087        7.26531
C         12.27909       -8.41714        2.52223
C         13.61551       -7.71153        2.59593
C         14.86630       -8.38861        2.22061
O         14.23879       -7.44862        1.32635
H          1.80965        1.61746        1.11153
H          2.05918        0.77453        2.65116
H          1.15070       -0.01184        1.34459
H          4.15195        0.71899        1.23466
H          3.25636       -0.03747       -0.07965
H          2.80578       -2.04186        1.34203
H          3.63897       -1.28812        2.70160
H          5.78605       -1.25398        1.41543
H          4.97179       -1.93137       -0.00236
H          4.47751       -4.04332        1.24655
H          5.21373       -3.35677        2.72054
H          8.73355       -4.37265        0.38570
H          8.07826       -5.80592       -0.44096
H          6.84078       -7.48801        1.16970
H          7.64509       -9.06797        0.95898
H          9.80580       -9.08919        2.32349
H         11.52263       -7.21372        0.87705
H         10.51933       -4.72908        1.58352
H          8.68601       -4.06090        3.14033
H         10.24286       -4.22243        3.94773
H         10.69692       -6.16703        5.48089
H          9.74558       -7.81160        7.05231
H          5.85865       -7.25287        5.28735
H          6.79700       -5.59812        3.73589
H          6.83772       -8.13393        8.18727
H          7.87472       -9.41943        7.55462
H          6.25709       -9.15124        6.86078
H         12.37448       -9.32940        1.91475
H         11.95097       -8.70258        3.53544
H         13.67030       -6.87667        3.30286
H         14.83652       -9.43209        1.89118
H         15.81108       -8.05366        2.65669
