59

C          7.42632        5.04069       -0.98478
C          8.05879        3.68158       -1.29564
C          7.25572        2.51268       -0.70711
C          7.91471        1.16121       -0.99006
S          6.79869       -0.14811       -0.32924
C          7.69233       -1.59566       -0.61094
N          7.24211       -2.73952       -1.04270
N          8.26150       -3.67847       -0.88649
C          9.27479       -3.01751       -0.40753
O          9.04131       -1.69948       -0.19489
N         10.54452       -3.52263       -0.18717
C         11.48005       -2.91171        0.60190
N         12.80173       -2.96864        0.32728
C         13.44049       -2.29684        1.33317
N         12.59043       -1.81579        2.20651
N         11.35533       -2.20631        1.74745
C         10.20265       -2.07491        2.62406
C          9.70268       -3.46501        3.06148
O         10.20515       -4.50560        2.68625
O          8.66057       -3.31293        3.87220
C          8.05365       -4.54154        4.42572
C          8.77292       -5.00427        5.68398
C          8.79040       -3.97316        6.81526
C         10.85298       -4.85015       -0.77253
C         11.70897       -4.74491       -2.05230
O         12.83886       -4.23067       -1.95774
C         11.20252       -5.26916       -3.31966
C          9.82565       -5.49948       -3.53849
C          9.38868       -5.94095       -4.78492
C         10.31251       -6.18274       -5.80661
C         11.68197       -5.96584       -5.59459
C         12.12611       -5.50016       -4.36525
H          8.00714        5.85850       -1.43096
H          7.37560        5.22038        0.09895
H          6.40245        5.10520       -1.38086
H          9.08920        3.65269       -0.90324
H          8.14184        3.55117       -2.38720
H          6.23545        2.52169       -1.12552
H          7.14806        2.64672        0.38204
H          8.89307        1.08465       -0.49722
H          8.03543        0.98786       -2.06812
H         13.11816       -3.45891       -0.57055
H         14.51636       -2.17190        1.39344
H          9.39682       -1.51366        2.13414
H         10.54069       -1.50228        3.49540
H          8.06580       -5.30656        3.63943
H          7.02134       -4.23289        4.63186
H          9.79569       -5.31682        5.42332
H          8.25317       -5.91895        6.01287
H          9.32326       -3.05766        6.52302
H          9.29415       -4.37889        7.70158
H          7.77183       -3.68509        7.11291
H          9.89355       -5.34830       -0.93127
H         11.41463       -5.43092       -0.02738
H          9.08862       -5.28862       -2.76215
H          8.32462       -6.09644       -4.96139
H          9.96526       -6.54059       -6.77671
H         12.39598       -6.16105       -6.39473
H         13.18511       -5.31853       -4.18324
