85

C          0.76977       -1.66858       -0.59999
C          2.29897       -1.72017       -0.55274
C          2.86149       -1.75585        0.87281
C          4.39121       -1.80859        0.93033
C          4.95315       -1.86309        2.35478
C          6.48330       -1.91036        2.40736
C          7.05088       -1.99383        3.82791
C          8.58174       -2.03397        3.87110
C          9.15718       -2.14409        5.28648
C         10.68825       -2.18831        5.32027
C         11.26770       -2.32239        6.73215
C         12.79842       -2.37693        6.75957
C         13.37691       -2.52983        8.16977
C         14.90797       -2.59580        8.19281
C         15.47479       -2.76234        9.60669
C         17.00522       -2.83565        9.59604
N         17.59806       -2.93135       10.94395
C         17.58540       -4.08069       11.67665
N         17.15986       -5.29018       11.27504
C         17.02653       -6.44133       12.18853
C         18.32143       -6.81609       12.86071
C         18.44238       -6.97355       14.18296
N         18.11113       -3.76576       12.87027
N         18.49347       -2.45211       12.92354
C         18.17395       -1.93816       11.75934
C         18.46641       -0.49773       11.39422
C         17.12003        0.26158       11.07971
C         16.06379        0.10494       12.18584
C         17.32469        1.74787       10.74452
C         19.18889        0.15630       12.61656
O         20.46294       -0.39789       12.90163
C         19.44438       -0.46473       10.19232
H          0.39780       -1.64808       -1.63366
H          0.38427       -0.77267       -0.09075
H          0.32537       -2.54505       -0.10495
H          2.71471       -0.84778       -1.08503
H          2.65543       -2.60673       -1.10432
H          2.44554       -2.62948        1.40552
H          2.50522       -0.86925        1.42680
H          4.80677       -0.92907        0.40747
H          4.74677       -2.68891        0.36607
H          4.54243       -2.74667        2.87472
H          4.59509       -0.98651        2.92306
H          6.89309       -1.01757        1.90266
H          6.84093       -2.77632        1.82254
H          6.64785       -2.89165        4.32929
H          6.69067       -1.13255        4.41789
H          8.98393       -1.12869        3.38288
H          8.94013       -2.88571        3.26621
H          8.75548       -3.05003        5.77399
H          8.80236       -1.29277        5.89377
H         11.09079       -1.27642        4.84513
H         11.04163       -3.03151        4.70088
H         10.86184       -3.23284        7.20758
H         10.92051       -1.47762        7.35268
H         13.20621       -1.46249        6.29449
H         13.14501       -3.21586        6.13085
H         12.96530       -3.44192        8.63667
H         13.03917       -1.68851        8.79952
H         15.32267       -1.67809        7.74079
H         15.24924       -3.42908        7.55388
H         15.04733       -3.66587       10.07385
H         15.16153       -1.91858       10.23964
H         17.43262       -1.94958        9.11834
H         17.36967       -3.69742        9.01338
H         16.68860       -5.34010       10.37918
H         16.67578       -7.27438       11.56214
H         16.24349       -6.24205       12.93974
H         19.17464       -6.99384       12.19925
H         17.59799       -6.82061       14.86046
H         19.38120       -7.29652       14.63249
H         18.35676       -4.41838       13.61252
H         16.71400       -0.20189       10.16442
H         16.35516        0.62711       13.10742
H         15.87406       -0.94544       12.45095
H         15.10936        0.53817       11.85822
H         17.63718        2.33210       11.62027
H         16.37404        2.17464       10.39787
H         18.06140        1.90559        9.94703
H         18.53627        0.13157       13.50321
H         19.37049        1.20769       12.36062
H         20.31153       -1.22923       13.38085
H         18.96195       -0.71484        9.23826
H         20.28695       -1.14661       10.35489
H         19.86538        0.54252       10.08799
