43

C          0.99960       -0.20162       -1.87153
C          2.46726       -0.04512       -1.48577
S          3.27793       -1.68685       -1.65474
C          4.86925       -1.29047       -1.11922
N          5.37824       -0.16794       -0.68668
N          6.72114       -0.42648       -0.39446
C          6.93711       -1.67193       -0.65998
O          5.80488       -2.31959       -1.13588
C          8.19175       -2.46267       -0.51056
C          8.48466       -3.29601       -1.77680
C          9.92747       -3.76715       -1.96902
C         10.84353       -2.59624       -2.35195
C         12.28404       -2.92751       -2.58391
C         12.92393       -4.10320       -2.58348
F         12.33227       -5.28193       -2.35767
F         14.21576       -4.24368       -2.80629
F         13.03150       -1.82412       -2.83498
N          7.56774       -4.50651       -1.54671
C          7.50272       -4.77199       -0.03988
C          8.13344       -3.53330        0.62917
C          7.40610       -3.11028        1.91275
C          8.09295       -1.96439        2.65925
H          0.50379        0.77363       -1.78164
H          0.47606       -0.90596       -1.21156
H          0.88203       -0.54138       -2.90919
H          2.59305        0.27950       -0.44586
H          2.99879        0.65528       -2.14159
H          8.99188       -1.73722       -0.32206
H          8.12551       -2.79995       -2.68969
H          9.94158       -4.52007       -2.77296
H         10.30000       -4.26330       -1.06085
H         10.82194       -1.82244       -1.56536
H         10.45871       -2.10536       -3.26379
H          7.88719       -5.32679       -2.07557
H          6.62460       -4.25703       -1.87687
H          8.04139       -5.70179        0.16938
H          6.44599       -4.90209        0.22074
H          9.17552       -3.77267        0.89150
H          7.34342       -3.99192        2.57042
H          6.36562       -2.83700        1.66991
H          9.13489       -2.21513        2.90563
H          7.57278       -1.76031        3.60302
H          8.08971       -1.03242        2.07843
