62

C         12.08556        9.87954        0.43211
C         11.36967        9.53478        1.74025
C         11.02726        8.04604        1.87186
C         10.31024        7.69646        3.17943
C         10.00125        6.20442        3.33903
C          9.48165        5.83329        4.73030
C          9.26122        4.33017        4.93778
C          9.15941        3.94514        6.41790
C          9.16221        2.44837        6.70401
O         10.30507        1.71360        6.17039
C         11.55277        2.02994        6.68517
N         12.28303        2.99721        5.81168
N         12.55479        4.26770        6.23776
C         13.10626        4.86954        5.20067
N         13.18763        3.99064        4.14450
C         12.65683        2.81892        4.53778
C         12.53721        1.62447        3.66210
C         12.28070        1.98270        2.14797
N         13.32107        2.95066        1.70937
N         12.41978        0.73080        1.42667
N         11.01236        2.64132        1.86347
C         13.57137        6.28317        5.15309
C         13.17923        7.08964        6.40693
C         13.59769        8.51305        6.29787
C         14.46332        9.15940        7.08726
F         15.09518        8.58016        8.10473
F         14.78716       10.43310        6.96098
F         13.01935        9.21427        5.28210
H         12.31870       10.95107        0.37381
H         11.46560        9.62809       -0.44146
H         13.03369        9.32901        0.33450
H         10.44171       10.12510        1.81920
H         11.99384        9.83879        2.59725
H         11.95932        7.45302        1.79547
H         10.40565        7.73400        1.01409
H          9.37149        8.27098        3.25025
H         10.92594        8.03333        4.03164
H         10.92778        5.62908        3.13990
H          9.28122        5.88552        2.56547
H          8.54811        6.38123        4.93815
H         10.20658        6.19014        5.48222
H         10.10022        3.77899        4.48166
H          8.36180        3.99504        4.39487
H          8.22809        4.34617        6.85091
H          9.97362        4.43395        6.97818
H          8.30721        1.94772        6.23111
H          9.10973        2.26004        7.78916
H         12.15603        1.11139        6.71431
H         11.53533        2.50223        7.67854
H         13.46951        4.03812        3.12040
H         11.72186        0.98656        4.02708
H         13.47035        1.03950        3.72480
H         14.18270        2.43155        1.51923
H         13.01145        3.35299        0.82028
H         11.90188       -0.03393        1.86219
H         12.06816        0.83812        0.47293
H         10.89682        3.54256        2.33100
H         10.21792        2.05044        2.10508
H         13.15298        6.75667        4.25054
H         14.66648        6.29393        5.02575
H         13.63122        6.64872        7.30462
H         12.08614        7.04531        6.54494
