68

C          1.69502       -0.57513        0.82612
C          2.84723       -0.16358       -0.09376
C          4.02957        0.44406        0.67510
C          5.18018        0.80955       -0.26378
S          6.51083        1.57859        0.74091
C          7.72741        1.78295       -0.46149
N          7.74611        1.46877       -1.73830
N          8.99592        1.84102       -2.21299
C          9.64681        2.34809       -1.20921
O          8.91176        2.35752       -0.04560
C         11.01083        2.91448       -1.19831
S         10.92492        4.78970       -1.08658
C         11.17685        4.72745        0.61392
N         11.58966        3.55768        1.06587
C         11.86320        2.54907        0.02261
C         11.72945        3.18619        2.48536
C         10.48492        2.44881        2.99926
C         10.60460        2.06857        4.48691
C          9.43143        1.22043        4.92479
C          9.55461       -0.17404        4.99939
C          8.46338       -0.96869        5.35790
C          7.23073       -0.37602        5.64247
C          7.09621        1.01370        5.57266
C          8.19000        1.80536        5.21718
C         10.91858        5.91678        1.48536
C         10.51812        7.20198        0.74771
C         10.24305        8.35298        1.72107
C          9.80677        9.63758        0.99484
N          9.54217       10.73422        1.90482
C         10.48405       11.62822        2.37432
C          9.87171       12.44988        3.30137
C          8.51384       12.03641        3.40534
C          8.33886       10.97436        2.53872
H          0.84975       -0.96786        0.24641
H          1.32641        0.27742        1.41504
H          2.00656       -1.35854        1.53218
H          2.48793        0.56504       -0.83875
H          3.19632       -1.03888       -0.66561
H          4.38450       -0.27038        1.43597
H          3.68963        1.34118        1.21923
H          4.87448        1.53484       -1.02919
H          5.60324       -0.07202       -0.76231
H         11.50392        2.66384       -2.14383
H         11.61577        1.54957        0.40057
H         12.93762        2.58383       -0.21783
H         11.92258        4.09725        3.06577
H         12.62581        2.55318        2.56520
H         10.32005        1.53589        2.40743
H          9.59572        3.07851        2.84308
H         10.66611        2.98335        5.09843
H         11.54090        1.51275        4.65241
H         10.51921       -0.64178        4.78815
H          8.57926       -2.05108        5.42386
H          6.38029       -0.99464        5.93046
H          6.14007        1.48219        5.80891
H          8.07972        2.89220        5.18137
H         11.81773        6.09550        2.10041
H         10.12281        5.63363        2.19823
H          9.61813        7.01059        0.14054
H         11.31979        7.49199        0.04807
H         11.14263        8.57085        2.31871
H          9.45396        8.06428        2.43425
H          8.89587        9.44922        0.40572
H         10.58554        9.95720        0.28544
H         11.50058       11.61506        1.99356
H         10.34352       13.27190        3.82961
H          7.74434       12.47965        4.02898
H          7.45967       10.38203        2.30503
