73

C         14.00960       -7.17284        0.59193
C         12.81289       -8.06598        0.25935
C         11.48126       -7.30915        0.19235
C         10.27650       -8.22529       -0.05137
C          8.91029       -7.52095       -0.03427
C          8.69070       -6.45600       -1.12309
C          8.83821       -7.01476       -2.54389
C          8.23281       -6.18411       -3.68321
C          8.91094       -4.84206       -4.06242
N         10.38407       -4.77297       -3.80583
C         10.85441       -4.05057       -2.73308
C          9.97900       -3.16494       -1.88166
C         10.02363       -1.67525       -2.30926
C          9.28644       -1.33832       -3.62347
C          7.85951       -1.62957       -3.56893
C          6.67977       -1.88603       -3.47837
C         12.22026       -4.08232       -2.44881
C         13.09959       -4.79940       -3.24624
C         12.60203       -5.47863       -4.35393
C         11.24020       -5.46793       -4.63725
C         10.67316       -6.15809       -5.85022
C         11.55827       -7.24895       -6.47916
O         12.07266       -8.17693       -5.48916
C         11.21614       -8.97256       -4.78936
O         10.01093       -8.99063       -4.94738
C         11.96282       -9.80399       -3.77076
S         12.95196      -11.14284       -4.52703
C         10.78154       -7.90841       -7.63072
O         11.43953       -9.05976       -8.17292
C         12.47602       -8.81086       -9.03279
O         12.86492       -7.69358       -9.30578
C         13.05308      -10.10034       -9.56221
S         14.35012      -10.73373       -8.43359
H         14.94503       -7.74698        0.62794
H         13.88298       -6.68798        1.57117
H         14.13932       -6.37419       -0.15610
H         12.73312       -8.86494        1.01474
H         12.98817       -8.58327       -0.70016
H         11.54628       -6.53951       -0.59929
H         11.33017       -6.75638        1.13648
H         10.26665       -9.00703        0.72480
H         10.41215       -8.76513       -1.00456
H          8.76076       -7.05221        0.95178
H          8.11965       -8.28284       -0.13010
H          9.38923       -5.62107       -0.95928
H          7.67981       -6.03329       -0.99936
H          8.34659       -7.99864       -2.59090
H          9.89773       -7.22558       -2.75902
H          7.19196       -5.92238       -3.43557
H          8.17020       -6.83047       -4.56885
H          8.45253       -4.01715       -3.51971
H          8.75787       -4.61934       -5.12515
H         10.37655       -3.23144       -0.85958
H          8.94000       -3.50616       -1.82297
H         11.06987       -1.34641       -2.39751
H          9.57325       -1.09230       -1.49391
H          9.74356       -1.86714       -4.47820
H          9.42592       -0.26639       -3.83577
H          5.62744       -2.07423       -3.41930
H         12.57623       -3.52477       -1.58372
H         14.16467       -4.82549       -3.01486
H         13.26943       -6.03852       -5.00319
H         10.48709       -5.39190       -6.62489
H          9.70355       -6.60618       -5.61383
H         12.47681       -6.81737       -6.89902
H         11.24213      -10.20761       -3.05194
H         12.69525       -9.17993       -3.24159
H         11.89654      -11.86275       -4.97566
H         10.65215       -7.14962       -8.41845
H          9.80758       -8.27521       -7.29188
H         13.46407       -9.93491      -10.56339
H         12.28778      -10.88412       -9.59774
H         15.27719       -9.79885       -8.75004
