103

C          0.74693        0.17269        0.36906
C          2.27568        0.11354        0.31097
C          2.80986       -0.65198       -0.90514
C          4.33947       -0.69061       -0.98489
C          4.87579       -1.48629       -2.17968
C          6.40457       -1.48235       -2.28426
C          6.94445       -2.32922       -3.44170
C          8.47054       -2.28577       -3.57567
C          9.01180       -3.17132       -4.70331
C         10.53075       -3.07591       -4.88411
C         11.07132       -3.99056       -5.98926
C         12.56785       -3.80238       -6.26029
C         13.11040       -4.73752       -7.35038
C         14.57752       -4.43762       -7.69822
C         15.21710       -5.30198       -8.79417
C         14.57451       -5.05829      -10.17615
N         15.09025       -5.86641      -11.28111
C         14.98393       -7.28664      -10.93235
C         15.66470       -7.65194       -9.61684
N         15.13661       -6.80224       -8.47401
C         15.81572       -7.18304       -7.17699
O         15.51274       -8.51915       -6.97239
C         16.38344       -9.17424       -6.00917
C         16.03129      -10.64853       -5.95109
C         16.96295      -11.40710       -4.99604
C         16.65766      -12.90632       -4.89707
C         17.61896      -13.63687       -3.95370
C         17.34740      -15.13806       -3.81168
C         18.32701      -15.82908       -2.85693
C         18.07551      -17.32887       -2.67293
C         19.05966      -17.98895       -1.70110
C         18.81700      -19.48646       -1.48994
C         19.80062      -20.13309       -0.50778
C         19.55272      -21.62840       -0.29451
N         16.50384       -5.53352      -11.53278
O         16.75775       -6.29170      -12.72650
O         16.40290       -4.15968      -11.94185
H          0.39771        0.72125        1.25471
H          0.30886       -0.83590        0.40979
H          0.33258        0.67568       -0.51748
H          2.66207       -0.35577        1.23175
H          2.68396        1.13850        0.30208
H          2.40813       -0.19589       -1.82744
H          2.41743       -1.68435       -0.88563
H          4.74266       -1.12205       -0.05147
H          4.72731        0.34251       -1.02986
H          4.44673       -1.07910       -3.11234
H          4.51616       -2.52842       -2.11361
H          6.83642       -1.84722       -1.33549
H          6.75896       -0.44232       -2.39508
H          6.48748       -1.98898       -4.38778
H          6.61791       -3.37588       -3.30949
H          8.93122       -2.59100       -2.61962
H          8.79093       -1.24259       -3.74457
H          8.51751       -2.89696       -5.65190
H          8.72962       -4.22123       -4.50935
H         11.03239       -3.31753       -3.93081
H         10.80273       -2.03033       -5.11176
H         10.51110       -3.80384       -6.92216
H         10.87240       -5.04350       -5.72214
H         13.13974       -3.95578       -5.32880
H         12.75405       -2.75727       -6.56154
H         12.47773       -4.64119       -8.24742
H         12.98936       -5.78109       -7.00039
H         15.19215       -4.46184       -6.78530
H         14.65454       -3.39988       -8.06044
H         16.29574       -5.09502       -8.85917
H         14.69495       -3.99849      -10.42262
H         13.49299       -5.25843      -10.13834
H         15.41505       -7.89077      -11.73732
H         13.90795       -7.51905      -10.89783
H         16.74469       -7.45867       -9.66203
H         15.49711       -8.69710       -9.33650
H         14.13824       -7.03482       -8.34403
H         15.42073       -6.52589       -6.38471
H         16.89729       -6.99429       -7.31400
H         16.25484       -8.69334       -5.02324
H         17.43116       -9.02728       -6.33071
H         16.10320      -11.07453       -6.96503
H         14.98345      -10.75920       -5.63038
H         16.90042      -10.95946       -3.98918
H         18.00872      -11.27371       -5.32345
H         16.70930      -13.35976       -5.90221
H         15.61918      -13.04835       -4.55144
H         17.57274      -13.16624       -2.95585
H         18.65450      -13.48847       -4.30756
H         17.39896      -15.61827       -4.80459
H         16.31444      -15.29255       -3.45369
H         18.28187      -15.33173       -1.87191
H         19.35784      -15.67593       -3.22254
H         18.13187      -17.83466       -3.65290
H         17.04398      -17.48553       -2.31133
H         19.00759      -17.47184       -0.72656
H         20.09026      -17.83511       -2.06716
H         18.87587      -20.00860       -2.46140
H         17.78554      -19.64236       -1.12702
H         19.74234      -19.60774        0.46072
H         20.83052      -19.97800       -0.87196
H         18.54444      -21.81340        0.10515
H         20.27369      -22.05937        0.41382
H         19.64061      -22.18714       -1.23823
H         17.71633       -6.45529      -12.66807
H         17.28018       -3.80896      -11.70414
