53

C         10.00986       -3.87523      -10.84625
O          9.51532       -2.54291      -10.78712
C          9.38388       -2.07124       -9.46108
C          8.74913       -0.68904       -9.53229
O          8.74567       -0.15202       -8.20903
C          8.11035        1.11092       -8.11693
C          8.14663        1.50733       -6.64232
O          8.21858        2.93754       -6.55474
C          8.42893        3.41492       -5.24089
C          9.92683        3.36416       -4.80526
C         10.78381        4.44293       -5.40089
C         10.94264        5.68816       -4.75033
C         10.24456        5.94891       -3.41985
C         10.45617        7.28095       -2.87674
C         10.62333        8.38485       -2.41368
C         11.74613        6.67103       -5.32768
C         12.38544        6.43453       -6.54477
C         12.19825        5.21714       -7.15989
N         11.41752        4.25234       -6.60191
C         11.31456        2.98293       -7.38756
C         12.55412        2.07663       -7.29545
C         12.83007        1.57111       -5.87433
C         12.34766        0.91606       -8.28175
H         10.07674       -4.14403      -11.90650
H          9.33086       -4.58080      -10.33443
H         11.01341       -3.95443      -10.38894
H         10.37161       -2.00488       -8.95960
H          8.74963       -2.74756       -8.85518
H          7.72004       -0.75843       -9.92872
H          9.33368       -0.04126      -10.21369
H          7.07439        1.06587       -8.49965
H          8.64837        1.87616       -8.71236
H          9.03973        1.02879       -6.19470
H          7.26311        1.14302       -6.09176
H          7.84183        2.83498       -4.50754
H          8.06197        4.45117       -5.22697
H         10.33091        2.36801       -5.01532
H          9.95960        3.46817       -3.71337
H         10.58786        5.20386       -2.67933
H          9.16030        5.77768       -3.52993
H         10.75850        9.36025       -1.99225
H         11.86086        7.62494       -4.81053
H         13.01327        7.18716       -7.01812
H         12.64740        4.96316       -8.11774
H         11.14561        3.29402       -8.42670
H         10.41137        2.46498       -7.06833
H         13.42933        2.66245       -7.62907
H         12.01925        0.91782       -5.51760
H         12.96403        2.38892       -5.15101
H         13.75272        0.97667       -5.85821
H         11.45244        0.32975       -8.02411
H         13.21241        0.24045       -8.26004
H         12.23061        1.27529       -9.31394
