62

C          1.40241        1.18093        1.03428
O          1.41686        0.36884       -0.15216
C          2.37674       -0.61306       -0.26580
C          3.28448       -0.94016        0.74563
C          4.20817       -1.96760        0.53658
C          4.22504       -2.67874       -0.66383
C          3.30870       -2.35381       -1.66411
C          2.38397       -1.31766       -1.49157
C          1.45267       -0.95151       -2.62084
C          1.68862        0.44382       -3.21734
C          0.65823        0.86748       -4.27919
C         -0.75425        0.73953       -3.68712
C         -1.05707       -0.65509       -3.16319
N         -0.01465       -1.06445       -2.10975
C         -0.31175       -2.48197       -1.69163
O          0.15809       -3.38788       -2.30262
C         -1.38433       -2.79901       -0.56848
C         -1.60303       -1.87845        0.69418
C         -2.34485       -0.49643        0.56219
C         -3.75585       -0.52947       -0.11457
O         -3.85800       -0.36761       -1.30313
O         -4.78822       -0.74183        0.70216
F         -2.44243       -0.00175        1.83208
F         -1.55715        0.36526       -0.15298
F         -2.34363       -2.60567        1.57007
F         -0.37520       -1.64912        1.23721
F         -2.57434       -2.93499       -1.22579
F         -1.02141       -3.99937       -0.07707
C          0.81753        0.13475       -5.63626
C          2.09859        0.50406       -6.35929
C          2.16655        1.77283       -6.95929
C          3.31058        2.21047       -7.62250
C          4.41907        1.36463       -7.70182
C          4.35940        0.09703       -7.12599
C          3.21399       -0.35792       -6.45074
C          3.23186       -1.75061       -5.86212
H          2.35978        1.70670        1.15688
H          1.18502        0.57752        1.92749
H          0.60124        1.91061        0.88182
H          3.28202       -0.40229        1.69171
H          4.91467       -2.21336        1.32959
H          4.94024       -3.48553       -0.81776
H          3.30500       -2.91219       -2.60184
H          1.51931       -1.71758       -3.40223
H          2.69737        0.42167       -3.65437
H          1.71671        1.18506       -2.40761
H          0.83207        1.93674       -4.47483
H         -1.52143        0.96475       -4.44323
H         -0.89753        1.47121       -2.87561
H         -0.99727       -1.42199       -3.94693
H         -2.04251       -0.70293       -2.68261
H         -0.06924       -0.42018       -1.29512
H         -4.51102       -0.77851        1.63874
H         -0.03894        0.41544       -6.27004
H          0.74969       -0.95583       -5.50775
H          1.29204        2.42750       -6.91634
H          3.33206        3.19712       -8.08582
H          5.32167        1.68442       -8.22317
H          5.22006       -0.56997       -7.20751
H          4.03320       -2.34711       -6.31444
H          2.29076       -2.29466       -6.02480
H          3.42753       -1.73539       -4.77792
