72

N          1.91029        0.83859        2.38371
C          2.00458        2.26551        2.71646
C          1.18606        3.07444        1.67815
C          1.98075        3.29711        0.37110
N          1.22979        4.05055       -0.65017
C          1.04948        5.37990       -0.52305
N          0.12751        6.00388       -1.28658
N         -0.09545        7.37866       -1.29937
N          1.76817        6.10015        0.36054
C          0.67969        3.31828       -1.81609
C         -0.79065        2.91419       -1.74738
O         -1.58838        4.05863       -2.06860
C         -2.99961        3.85083       -1.89744
C         -3.70822        5.16721       -2.19217
O         -5.08531        4.88835       -2.02523
C         -5.99256        5.91979       -2.17427
C         -5.65730        7.24264       -2.48117
C         -6.67370        8.19554       -2.59645
C         -8.02872        7.87432       -2.42644
C         -8.32703        6.53797       -2.11287
C         -7.33286        5.57134       -1.98923
C         -9.11353        8.95547       -2.55405
C         -9.03845        9.71103       -3.92168
C         -9.27294        9.05097       -5.31483
C        -10.72564        8.57493       -5.52283
C         -8.99576       10.16594       -6.34833
C         -8.31432        7.87924       -5.60213
C        -10.52250        8.39523       -2.28314
C         -8.84581       10.02163       -1.45810
O         -0.02376        2.39317        1.40365
H          1.82973        0.25952        3.21620
H          2.71344        0.50003        1.85675
H          3.03999        2.64106        2.78455
H          1.53769        2.42419        3.69696
H          0.92789        4.05407        2.11306
H          2.22263        2.32578       -0.07925
H          2.94984        3.78603        0.57489
H         -0.62842        5.41583       -1.69331
H          0.66954        7.90251       -1.72229
H         -0.38557        7.75859       -0.39735
H          2.62292        5.73657        0.75935
H          1.62370        7.10249        0.39307
H          1.28642        2.41052       -1.91548
H          0.85214        3.92438       -2.71884
H         -1.03662        2.53301       -0.74297
H         -0.96808        2.11809       -2.49286
H         -3.21326        3.52457       -0.86550
H         -3.34801        3.06846       -2.59243
H         -3.48320        5.50486       -3.22041
H         -3.36842        5.95159       -1.48875
H         -4.62218        7.54624       -2.63707
H         -6.38438        9.21830       -2.84263
H         -9.36058        6.22863       -1.96631
H         -7.58214        4.53745       -1.74927
H         -8.04558       10.18964       -3.96639
H         -9.75452       10.54777       -3.84479
H        -11.45161        9.34991       -5.23630
H        -10.95536        7.66764       -4.95073
H        -10.89441        8.33768       -6.58358
H         -9.67413       11.02055       -6.20689
H         -9.13884        9.79142       -7.37238
H         -7.96389       10.53926       -6.26732
H         -8.49040        7.02468       -4.93636
H         -7.26254        8.17857       -5.48591
H         -8.45057        7.53042       -6.63687
H        -10.78538        7.55017       -2.92939
H        -11.27279        9.18013       -2.44955
H        -10.61970        8.06363       -1.23924
H         -7.88029       10.52533       -1.60400
H         -8.83761        9.55645       -0.46246
H         -9.63082       10.79171       -1.47144
H          0.21492        1.44518        1.55963
