45

C          3.11066        0.86472       -0.92222
C          3.63123       -0.52541       -0.62733
O          3.33915       -0.89417        0.77592
P          4.47928       -0.83050        1.88129
O          5.30593        0.42327        1.87884
C          3.53230       -0.96972        3.42530
C          2.77547        0.34919        3.74401
N          3.16939        1.01529        5.00878
C          4.33729        1.73397        5.05110
N          4.80430        2.53330        6.03115
N          6.00116        3.10397        5.70100
C          6.25079        2.65052        4.49729
N          5.24995        1.80204        4.05842
C          7.46972        2.99628        3.69727
C          8.26470        1.81987        3.36018
C          8.90699        0.83613        3.08168
C          2.38272        0.79529        6.21021
C          2.84380       -0.37873        7.12540
F          2.75238       -1.54200        6.42207
F          4.15113       -0.17750        7.46314
F          2.40584        1.93326        6.98108
F          1.09752        0.56287        5.86011
O          5.43350       -2.08503        1.72366
C          4.95293       -3.45367        1.47756
C          6.13772       -4.28782        1.04544
H          3.26915        1.09422       -1.98524
H          3.64056        1.62058       -0.32865
H          2.03423        0.93281       -0.71811
H          4.71398       -0.60431       -0.80091
H          3.12256       -1.29329       -1.22298
H          4.26339       -1.20545        4.21144
H          2.83791       -1.81790        3.37586
H          1.70199        0.16208        3.81121
H          2.90663        1.09351        2.94659
H          4.37819        2.73293        6.92962
H          5.27070        1.23121        3.11997
H          8.05658        3.70805        4.29706
H          7.16524        3.52409        2.77700
H          9.49316       -0.02170        2.82638
H          2.22880       -0.44466        8.03654
H          4.17069       -3.41654        0.70586
H          4.51182       -3.83116        2.41283
H          6.57411       -3.90033        0.11604
H          5.81095       -5.32147        0.86774
H          6.91426       -4.30115        1.82057
