82

C          5.84096      -12.88841        3.44170
C          5.78417      -11.36668        3.59425
C          7.16249      -10.72425        3.78286
C          7.11570       -9.20275        3.94890
C          8.49733       -8.56003        4.10347
C          8.45164       -7.04531        4.33754
C          9.83038       -6.36484        4.40471
C         10.67426       -6.48566        3.12409
C         10.05563       -5.77611        1.91359
C         10.76084       -6.03328        0.58078
N         10.71488       -7.45407        0.12906
C          9.56067       -8.16246        0.12034
N          9.44422       -9.47158        0.42390
N          8.16869       -9.93171        0.28562
C          7.49733       -8.88298       -0.10180
N          8.29658       -7.75923       -0.22794
C          7.86668       -6.49568       -0.84829
C          8.32519       -6.37648       -2.30523
C          7.99362       -4.98558       -2.88588
C          8.66652       -3.90613       -2.17312
C          9.23606       -3.03011       -1.56194
C         11.98118       -8.19470        0.01378
C         12.38915       -8.92724        1.30184
O         11.75846       -9.88761        1.73602
O         13.45859       -8.38734        1.86630
C         13.93514       -8.97985        3.13492
C         14.96083      -10.07335        2.88514
C         15.55140      -10.59075        4.20521
C         16.59829      -11.69277        4.00341
C         17.22503      -12.17665        5.31557
C         18.26831      -13.28284        5.12583
C         18.92409      -13.73734        6.43515
C         19.96073      -14.84683        6.24094
H          4.83784      -13.31801        3.31726
H          6.29631      -13.36163        4.32420
H          6.43855      -13.18064        2.56515
H          5.14188      -11.10478        4.45179
H          5.29611      -10.92476        2.70794
H          7.80131      -10.98182        2.91965
H          7.65356      -11.16966        4.66565
H          6.49306       -8.94866        4.82387
H          6.60152       -8.75398        3.07860
H          9.09454       -8.79185        3.20487
H          9.03425       -9.03907        4.94071
H          7.92038       -6.84485        5.28113
H          7.83128       -6.57246        3.55546
H         10.40392       -6.80044        5.23850
H          9.69802       -5.29939        4.65362
H         10.81412       -7.55433        2.89961
H         11.68179       -6.07870        3.30549
H         10.06066       -4.68588        2.07361
H          8.99172       -6.04986        1.82680
H         11.82888       -5.79411        0.66391
H         10.35949       -5.38372       -0.21199
H         10.20298      -10.00903        0.89310
H          6.43128       -8.87106       -0.30515
H          8.23862       -5.65548       -0.24905
H          6.77079       -6.47704       -0.77519
H          7.83972       -7.15401       -2.91280
H          9.41110       -6.54249       -2.36774
H          6.90408       -4.81478       -2.86764
H          8.28685       -4.96351       -3.94679
H          9.72310       -2.22247       -1.05580
H         12.75784       -7.48102       -0.27994
H         11.88478       -8.94839       -0.78245
H         13.05988       -9.34917        3.68497
H         14.37173       -8.12203        3.66125
H         15.76435       -9.67488        2.24566
H         14.48739      -10.90282        2.33644
H         14.74001      -10.97110        4.84914
H         16.01013       -9.75047        4.75453
H         17.39358      -11.32162        3.33393
H         16.13399      -12.54650        3.47996
H         16.42919      -12.53697        5.99076
H         17.69323      -11.31966        5.83114
H         19.05116      -12.93151        4.43060
H         17.79591      -14.15132        4.63363
H         18.14175      -14.08116        7.13284
H         19.40029      -12.86873        6.92089
H         19.50740      -15.74477        5.79530
H         20.41441      -15.14428        7.19613
H         20.77379      -14.52225        5.57466
