66

C          0.87403       -0.02443        0.29262
C          2.40315       -0.06911        0.23902
C          2.94219       -1.12047       -0.73738
C          4.47191       -1.18432       -0.78782
C          5.00810       -2.26235       -1.73543
C          6.53791       -2.34505       -1.75130
C          7.08062       -3.45767       -2.65461
C          8.61197       -3.54551       -2.61658
C          9.14546       -4.70730       -3.47216
P         10.95525       -4.83387       -3.42462
C         11.57183       -4.92074       -1.74608
C         11.23937       -6.01286       -0.92450
C         11.69750       -6.04371        0.39138
C         12.47890       -4.99378        0.88780
C         12.80814       -3.90843        0.07160
C         12.35614       -3.86617       -1.24781
C         11.57970       -6.21665       -4.43622
C         11.06772       -6.13353       -5.87686
O         11.21515       -4.78484       -6.28426
C         10.84186       -4.55464       -7.65146
C         11.12831       -3.09501       -7.97760
O         10.73015       -2.90085       -9.31661
C         11.02670       -1.59379       -9.80960
C         10.58619       -1.54274      -11.26588
O         10.90134       -0.25173      -11.75194
C         10.56109       -0.08813      -13.12236
H          0.51822        0.73286        1.00417
H          0.45727       -0.99383        0.60408
H          0.44608        0.21770       -0.69145
H          2.80197       -0.27398        1.24713
H          2.79293        0.92353       -0.04329
H          2.55000       -0.91447       -1.74889
H          2.54572       -2.11247       -0.45711
H          4.86161       -1.36960        0.22877
H          4.87093       -0.19980       -1.08889
H          4.63876       -2.07165       -2.75801
H          4.59402       -3.24284       -1.44165
H          6.90287       -2.50606       -0.72181
H          6.95534       -1.37513       -2.07309
H          6.74530       -3.29463       -3.69290
H          6.65351       -4.42593       -2.34148
H          8.94601       -3.67146       -1.57455
H          9.04564       -2.59530       -2.97089
H          8.86540       -4.59710       -4.53147
H          8.74895       -5.67608       -3.12564
H         11.48544       -3.64021       -3.95400
H         10.62425       -6.83248       -1.30126
H         11.44540       -6.88813        1.03267
H         12.83303       -5.02344        1.91854
H         13.41694       -3.09233        0.46073
H         12.61139       -3.01585       -1.88259
H         11.28240       -7.15803       -3.95193
H         12.67702       -6.14770       -4.39322
H         10.00993       -6.45505       -5.93971
H         11.65840       -6.81468       -6.51619
H          9.76994       -4.77665       -7.80051
H         11.42680       -5.21131       -8.31852
H         12.20720       -2.88277       -7.84216
H         10.56617       -2.43131       -7.28842
H         12.11092       -1.38810       -9.73609
H         10.49121       -0.82386       -9.22281
H          9.49918       -1.74496      -11.33984
H         11.11288       -2.32792      -11.84364
H         10.84662        0.93236      -13.40271
H          9.47627       -0.21966      -13.28873
H         11.10685       -0.80549      -13.76228
