55

F          2.46962       -2.29662       -2.24517
C          2.17009       -0.95715       -2.54858
C          2.77387       -0.05054       -1.46954
C          4.26877       -0.13728       -1.41403
N          4.91382       -1.27042       -1.25626
C          6.38147       -1.21002       -1.09215
C          6.80402        0.17537       -1.65390
S          5.27610        1.22796       -1.56446
C          7.32635        0.15056       -3.09141
C          8.71603       -0.48455       -3.19420
O          9.04176       -0.52980       -4.56316
C         10.29044       -1.17918       -4.81447
C         10.55958       -1.12574       -6.31167
O         11.73587       -1.87953       -6.52719
C         12.15991       -1.89209       -7.88804
C         13.41819       -2.74599       -7.95559
O         13.86331       -2.75000       -9.29929
C         15.04877       -3.51287       -9.47256
C          6.78503       -1.45778        0.36820
C          6.46455       -2.87037        0.86211
C          6.88043       -3.10984        2.31727
C          6.44462       -4.48802        2.83080
N          4.97947       -4.61951        2.78824
H          1.07731       -0.84879       -2.56132
H          2.57861       -0.74275       -3.54676
H          2.36562       -0.34052       -0.48780
H          2.46766        0.98671       -1.66121
H          4.40025       -2.15173       -1.19365
H          6.81183       -1.99851       -1.72961
H          7.53034        0.64587       -0.97605
H          7.38316        1.17378       -3.49071
H          6.62856       -0.40507       -3.73814
H          8.72706       -1.50688       -2.75905
H          9.45563        0.11553       -2.62418
H         10.25054       -2.23354       -4.48203
H         11.10668       -0.67694       -4.26342
H         10.68664       -0.07632       -6.64152
H          9.69902       -1.55127       -6.86479
H         12.37721       -0.86623       -8.24028
H         11.37379       -2.31747       -8.53997
H         13.19314       -3.77353       -7.60679
H         14.18999       -2.32556       -7.28074
H         15.31603       -3.45344      -10.53402
H         14.89249       -4.57225       -9.19704
H         15.88101       -3.10983       -8.86637
H          6.30342       -0.70072        1.01061
H          7.87059       -1.27449        0.43030
H          6.97058       -3.60650        0.21291
H          5.38469       -3.08230        0.79221
H          6.43687       -2.32920        2.96023
H          7.97287       -3.01309        2.42501
H          6.87712       -4.64739        3.83550
H          6.86992       -5.26849        2.18050
H          4.55728       -4.14351        3.58721
H          4.70589       -5.59868        2.86621
