86

O          1.37887       -0.35766       -1.41995
C          2.28788       -0.24050       -0.60863
N          2.51994       -1.09611        0.43941
C          1.78746       -2.23868        0.84757
C          2.29714       -2.95467        1.94377
C          1.62893       -4.07877        2.42303
C          0.44454       -4.50218        1.81273
C         -0.05719       -3.78942        0.72160
C          0.60006       -2.65999        0.22775
C          3.23238        0.97476       -0.70060
C          4.67437        0.83658       -0.19479
C          5.54153        2.06982       -0.49163
N          5.03986        3.25524        0.24670
C          5.94976        3.91129        0.91702
C          7.31077        3.36095        0.69180
C          7.02004        1.98042       -0.01392
C          8.03238        1.59591       -1.09941
C          7.80502        0.22481       -1.74675
C          8.94582       -0.17113       -2.69085
C          8.69283       -1.48371       -3.43857
C          9.86349       -1.90981       -4.33099
C          9.59217       -3.19034       -5.12749
C         10.78054       -3.63954       -5.98450
C         10.49850       -4.89700       -6.81358
C         11.70128       -5.36582       -7.63932
C         11.41474       -6.61245       -8.48426
C         12.63711       -7.10923       -9.26201
C         12.32261       -8.33831      -10.12416
N         13.48436       -8.84369      -10.85111
C         13.93797       -8.37206      -12.06080
C         15.12142       -9.03500      -12.37781
C         15.39302       -9.93100      -11.32097
C         14.36812       -9.78948      -10.38784
C          8.13833        4.37868       -0.09241
C          7.64223        5.02034       -1.23622
C          8.46631        5.92221       -1.91356
N          9.71617        6.21740       -1.53001
C         10.18176        5.60414       -0.43335
C          9.43779        4.68936        0.31806
H          3.31671       -0.88731        1.03222
H          3.22297       -2.62536        2.42385
H          2.03394       -4.62264        3.27681
H         -0.08086       -5.38105        2.18616
H         -0.98045       -4.11241        0.23930
H          0.20741       -2.10912       -0.62209
H          2.70179        1.78882       -0.17438
H          3.22840        1.24336       -1.76658
H          5.15803       -0.02444       -0.67820
H          4.71493        0.65796        0.89352
H          5.48213        2.30628       -1.56879
H          4.05807        3.53090        0.22325
H          5.69449        4.80125        1.49228
H          7.82092        3.20160        1.65409
H          7.05474        1.21616        0.78004
H          9.03607        1.61581       -0.64408
H          8.04704        2.37006       -1.88279
H          6.85905        0.22543       -2.31639
H          7.69385       -0.54735       -0.96527
H          9.88173       -0.24938       -2.11130
H          9.11084        0.63873       -3.42241
H          7.78165       -1.38132       -4.05370
H          8.47806       -2.28626       -2.71136
H         10.76319       -2.05027       -3.70681
H         10.10686       -1.09083       -5.03031
H          8.71124       -3.03621       -5.77508
H          9.31671       -4.00266       -4.43216
H         11.65167       -3.82138       -5.33089
H         11.07694       -2.81711       -6.65885
H          9.64325       -4.70670       -7.48568
H         10.17845       -5.71316       -6.14196
H         12.54883       -5.57160       -6.96261
H         12.03484       -4.54690       -8.30022
H         10.59292       -6.39381       -9.18855
H         11.04379       -7.41990       -7.82894
H         13.45183       -7.36253       -8.56410
H         13.02394       -6.30684       -9.91140
H         11.53925       -8.10307      -10.86024
H         11.93727       -9.15859       -9.50073
H         13.38513       -7.61161      -12.60347
H         15.70472       -8.88926      -13.28089
H         16.22862      -10.61861      -11.24156
H         14.19734      -10.29207       -9.44107
H          6.63555        4.83038       -1.61355
H          8.10179        6.43507       -2.80769
H         11.20256        5.85791       -0.13518
H          9.87190        4.22596        1.20590
