81

C         12.67347        2.13171        8.03764
C         12.12751        1.84028        6.63757
C         12.80666        2.66161        5.53568
C         12.25942        2.37834        4.13312
C         12.94892        3.18158        3.02540
C         12.36817        2.92143        1.63190
C         13.07112        3.69403        0.51114
C         12.44079        3.47139       -0.86720
C         13.16612        4.19349       -2.00764
C         12.46981        4.03095       -3.36247
C         13.21359        4.69343       -4.52711
C         12.45435        4.57741       -5.85545
C         13.12798        5.25995       -7.05466
C         14.42823        4.57805       -7.48117
N         14.96921        5.22707       -8.68417
C         16.14232        4.91179       -9.25287
N         16.57588        5.57982      -10.35195
C         17.90874        5.25861      -10.89177
C         18.48824        6.45101      -11.63104
C         19.80539        6.14099      -12.35261
C         20.39393        7.37308      -13.04338
O         18.76945        4.91498       -9.80187
C         18.31221        3.75892       -9.14232
N         16.89768        3.93252       -8.76281
C         19.17549        3.55371       -7.89553
C         18.62639        2.50360       -6.93761
O         17.42726        2.33326       -6.72287
O         19.60484        1.83472       -6.33979
C         19.22673        0.82298       -5.33800
C         19.02352       -0.53941       -5.98451
C         18.77204       -1.62042       -4.92797
H         12.16729        1.52632        8.80216
H         12.53668        3.18948        8.30768
H         13.74997        1.91282        8.10016
H         11.04175        2.03513        6.61716
H         12.24402        0.76654        6.41221
H         13.89359        2.46470        5.55215
H         12.69322        3.73700        5.76115
H         11.17571        2.59069        4.11620
H         12.35699        1.30013        3.91421
H         14.02833        2.94743        3.02295
H         12.87552        4.25930        3.25503
H         11.29458        3.18032        1.63325
H         12.41516        1.84008        1.41223
H         14.13669        3.40457        0.48025
H         13.05903        4.77296        0.74649
H         11.38731        3.80136       -0.84021
H         12.41001        2.38918       -1.08532
H         14.20223        3.81734       -2.07740
H         13.25041        5.26784       -1.76792
H         11.45048        4.44985       -3.29854
H         12.33956        2.95644       -3.58092
H         14.21577        4.23740       -4.61218
H         13.38227        5.76048       -4.29774
H         11.45475        5.02268       -5.73287
H         12.27903        3.51387       -6.09298
H         13.33345        6.31724       -6.81766
H         12.43050        5.25078       -7.90969
H         14.23986        3.50924       -7.68452
H         15.18217        4.64067       -6.68176
H         14.33584        5.81566       -9.21691
H         16.24472        6.53200      -10.47931
H         17.81001        4.38061      -11.55715
H         18.63467        7.26554      -10.90132
H         17.73601        6.79578      -12.36046
H         19.63228        5.34397      -13.09429
H         20.52839        5.74021      -11.62658
H         19.70339        7.78531      -13.79345
H         21.33028        7.12294      -13.55783
H         20.61628        8.17049      -12.31965
H         18.38339        2.88079       -9.81345
H         16.62923        3.36845       -7.93628
H         19.22520        4.50926       -7.34842
H         20.19592        3.29210       -8.19786
H         18.32486        1.17069       -4.81739
H         20.07743        0.82181       -4.64535
H         19.91722       -0.78876       -6.57684
H         18.17372       -0.48807       -6.68212
H         19.62016       -1.71240       -4.23487
H         18.62698       -2.59781       -5.40480
H         17.87276       -1.40464       -4.33375
