129

C          2.87523      -10.53636       16.25027
C          4.33462      -10.74861       15.83974
C          4.66684      -10.18596       14.45336
C          6.11964      -10.42115       14.02826
C          6.45545       -9.88174       12.63385
C          7.90505      -10.14536       12.21388
C          8.25696       -9.62071       10.81790
C          9.71126       -9.89119       10.41818
C         10.07637       -9.39417        9.01544
C         11.53529       -9.67037        8.63601
C         11.89901       -9.24156        7.21060
C         13.35870       -9.53077        6.84366
C         13.70522       -9.19469        5.38951
C         15.16018       -9.51013        5.02323
C         15.45819       -9.29420        3.53647
C         16.91144       -9.57318        3.12905
N         17.38575      -10.90876        3.51365
N         18.32083      -11.05492        4.52031
C         18.48006      -12.34219        4.67695
N         17.65704      -13.03051        3.78901
C         16.97461      -12.10837        3.05691
N         16.08619      -12.36275        2.09107
C         15.71940      -13.71122        1.62912
C         14.66817      -13.62775        0.52110
C         15.16437      -12.98553       -0.78135
C         14.07705      -12.88860       -1.85808
C         14.58776      -12.30442       -3.17962
C         13.49862      -12.15438       -4.24695
C         14.02280      -11.60346       -5.57700
C         12.93778      -11.43144       -6.64503
C         13.47323      -10.88588       -7.97247
C         12.39740      -10.69711       -9.04651
C         12.94484      -10.13275      -10.36147
C         11.87823       -9.93081      -11.44199
C         12.43093       -9.35096      -12.74870
C         11.36055       -9.14661      -13.82362
C         19.39824      -13.00217        5.64516
C         20.29750      -14.08351        5.00932
C         21.17108      -13.62206        3.82567
C         22.20463      -12.56366        4.25511
C         23.00691      -11.93598        3.09817
C         23.89946      -10.81964        3.56401
C         25.23332      -10.85939        3.73958
C         26.09028      -12.06983        3.47719
C         25.98313       -9.64787        4.22853
C         21.82518      -14.84532        3.16772
H          2.67035      -10.95641       17.24453
H          2.18681      -11.01668       15.53898
H          2.62021       -9.46664       16.28307
H          4.56813      -11.82682       15.85658
H          4.99994      -10.28580       16.58821
H          4.45006       -9.10323       14.43749
H          3.99037      -10.63838       13.70659
H          6.33511      -11.50399       14.05921
H          6.79593       -9.95981       14.76953
H          6.25645       -8.79613       12.60305
H          5.77224      -10.33407       11.89349
H          8.10135      -11.23154       12.25275
H          8.58624       -9.69129       12.95505
H          8.06072       -8.53509       10.77360
H          7.58176      -10.07945       10.07408
H          9.90783      -10.97630       10.47934
H         10.38431       -9.42266       11.15758
H          9.87827       -8.31043        8.94565
H          9.40984       -9.87064        8.27504
H         11.74052      -10.74963        8.75093
H         12.20149       -9.16008        9.35345
H         11.69599       -8.16392        7.08537
H         11.23472       -9.75855        6.49564
H         13.57254      -10.59907        7.02699
H         14.02598       -8.96976        7.52060
H         13.50172       -8.12768        5.19597
H         13.03141       -9.75685        4.71854
H         15.37758      -10.55726        5.29794
H         15.84349       -8.89316        5.63071
H         15.25251       -8.24975        3.25278
H         14.76338       -9.90246        2.93162
H         17.60369       -8.88697        3.63178
H         17.05900       -9.45447        2.04374
H         17.60840      -14.03730        3.66991
H         15.68798      -11.57221        1.59578
H         15.32043      -14.28229        2.48352
H         16.62132      -14.22740        1.25553
H         13.78332      -13.09271        0.90657
H         14.33059      -14.65510        0.31750
H         16.01825      -13.56833       -1.16767
H         15.55994      -11.97003       -0.59315
H         13.24253      -12.27261       -1.47998
H         13.65408      -13.89156       -2.03941
H         15.39720      -12.94529       -3.57074
H         15.04869      -11.31844       -2.99044
H         12.70165      -11.49263       -3.86468
H         13.01983      -13.13385       -4.42078
H         14.81081      -12.27387       -5.96301
H         14.51569      -10.63095       -5.40036
H         12.15249      -10.75600       -6.26220
H         12.44084      -12.40165       -6.82116
H         14.25493      -11.56507       -8.35619
H         13.97762       -9.92016       -7.79117
H         11.60987      -10.02576       -8.66097
H         11.90000      -11.66362       -9.24114
H         13.73128      -10.80552      -10.74697
H         13.44624       -9.16917      -10.16132
H         11.08695       -9.26464      -11.05464
H         11.38231      -10.89498      -11.65237
H         13.22020      -10.01765      -13.13568
H         12.92807       -8.38929      -12.53562
H         10.86929      -10.09596      -14.08415
H         11.78905       -8.73109      -14.74602
H         10.57741       -8.45418      -13.48042
H         18.79737      -13.45353        6.45191
H         19.98931      -12.20188        6.10815
H         19.67122      -14.93468        4.68593
H         20.93997      -14.49029        5.80604
H         20.50941      -13.15014        3.07162
H         22.90934      -13.01510        4.97472
H         21.70070      -11.74683        4.79756
H         22.29594      -11.54354        2.34884
H         23.59327      -12.71019        2.58451
H         23.38839       -9.88095        3.80718
H         25.52369      -12.94270        3.13268
H         26.63216      -12.36093        4.39136
H         26.86026      -11.84516        2.72199
H         25.31321       -8.79791        4.41119
H         26.74519       -9.33456        3.49623
H         26.52455       -9.86777        5.16310
H         22.52832      -15.33433        3.85916
H         22.38480      -14.57193        2.26470
H         21.07423      -15.59364        2.87470
