67

C          0.67919        2.82946       -9.37608
C          2.19730        3.02392       -9.37068
C          2.78108        3.21059       -7.96592
C          4.29640        3.43353       -7.95711
C          4.88318        3.60850       -6.55303
C          6.39432        3.85986       -6.55305
C          6.98549        4.01179       -5.14863
C          8.49667        4.27191       -5.15564
C          9.06045        4.41883       -3.73669
C         10.61036        4.44758       -3.63699
N         10.94806        4.72533       -2.21782
C         11.21292        3.70175       -1.47288
S         11.28270        2.19176       -2.26148
C         11.20887        3.02659       -3.93252
C         12.58598        2.98728       -4.60537
C         13.27347        1.61543       -4.79643
C         12.45157        0.62081       -5.64043
F         12.11114        1.16487       -6.84506
F         13.12444       -0.51252       -5.87402
F         11.28548        0.28813       -5.00634
O         14.56243        1.79012       -5.34540
C         11.21934        5.60302       -4.46765
C         10.79635        6.97427       -3.92429
O         10.77042        7.19781       -2.69232
N         10.48912        7.91512       -4.82824
C         10.17550        9.30661       -4.46833
C         11.41260       10.20943       -4.38776
C         12.15290       10.40062       -5.71674
C         13.35459       11.34115       -5.59563
H          0.29452        2.70010      -10.39678
H          0.16342        3.69494       -8.93406
H          0.38764        1.94057       -8.79694
H          2.45896        3.89881       -9.99009
H          2.68280        2.15817       -9.85243
H          2.53695        2.32742       -7.34931
H          2.28376        4.06620       -7.47554
H          4.53677        4.32307       -8.56606
H          4.79426        2.58350       -8.45623
H          4.66209        2.71095       -5.94934
H          4.37451        4.44657       -6.04508
H          6.61311        4.76728       -7.14325
H          6.90280        3.02972       -7.07431
H          6.77770        3.10096       -4.56121
H          6.47682        4.83635       -4.62014
H          8.69994        5.18408       -5.74058
H          8.99723        3.44632       -5.69148
H          8.69965        3.58702       -3.10966
H          8.66728        5.33834       -3.27627
H         10.91243        5.77852       -2.00156
H         11.37280        3.79426       -0.39700
H         10.47832        2.45179       -4.51132
H         13.30991        3.59162       -4.03871
H         12.48484        3.44948       -5.60095
H         13.43318        1.12706       -3.82185
H         14.48711        2.08388       -6.27014
H         10.94272        5.49095       -5.52304
H         12.31769        5.57486       -4.40941
H         10.56727        7.67825       -5.81178
H          9.65789        9.27669       -3.50164
H          9.46785        9.67840       -5.22332
H         12.09714        9.80937       -3.62222
H         11.07353       11.18804       -4.01131
H         11.45036       10.79426       -6.47118
H         12.49845        9.42385       -6.09851
H         13.04675       12.33826       -5.24993
H         13.86276       11.46653       -6.56059
H         14.09334       10.95572       -4.87778
