81

C          3.66601       -7.11739       10.98171
C          5.02276       -6.55486       10.55420
C          4.91880       -5.17530        9.89765
C          6.26859       -4.59903        9.46153
C          6.15450       -3.22402        8.79723
C          7.50349       -2.64360        8.36397
C          7.38217       -1.27311        7.68947
C          8.73970       -0.69276        7.28094
C          8.59384        0.66985        6.59909
N          9.89876        1.27150        6.26180
C         10.57046        2.17242        7.06685
N         11.81316        2.34459        6.69541
N         11.94022        1.54472        5.60191
C         10.81148        0.87617        5.31486
N         10.66859       -0.03611        4.31785
C         11.80918       -0.88519        3.94579
C         12.95492       -0.20489        3.15998
O         13.40222        0.88841        3.56961
N         13.50004       -0.84804        2.10545
C         14.73634       -0.31080        1.49023
C         14.51609        0.36636        0.13267
C         13.73733        1.68456        0.19033
C         13.58412        2.33548       -1.18584
C         13.02524       -2.13018        1.57681
C          9.52552        0.03088        3.37936
C          9.88319        0.58158        1.99524
C          8.65994        0.65400        1.07431
C          9.01007        1.10625       -0.34752
C          7.79464        1.18907       -1.27495
C          8.15105        1.56453       -2.71686
C          6.92631        1.66706       -3.62815
H          3.76921       -8.10487       11.45135
H          2.99161       -7.22746       10.11960
H          3.17092       -6.45436       11.70639
H          5.50922       -7.25429        9.85328
H          5.69004       -6.49017       11.43014
H          4.43288       -4.47478       10.59936
H          4.24908       -5.23937        9.02190
H          6.75785       -5.30211        8.76449
H          6.93576       -4.52696       10.33826
H          5.66326       -2.52220        9.49319
H          5.48901       -3.29703        7.91921
H          8.00082       -3.34696        7.67347
H          8.16541       -2.55967        9.24311
H          6.87451       -0.57194        8.37359
H          6.73318       -1.35833        6.80072
H          9.25452       -1.38953        6.59967
H          9.38300       -0.58169        8.16885
H          8.09160        1.38878        7.26107
H          7.98516        0.59754        5.68909
H         10.10095        2.67174        7.90907
H         12.76937        1.47504        4.94372
H         11.39041       -1.75009        3.41913
H         12.27182       -1.26899        4.87018
H         15.42839       -1.15969        1.38383
H         15.17043        0.39841        2.20457
H         14.02177       -0.33243       -0.56441
H         15.51568        0.55003       -0.29422
H         14.25124        2.37587        0.87716
H         12.74124        1.50857        0.62819
H         14.56432        2.55713       -1.63217
H         13.02951        3.28094       -1.12036
H         13.04361        1.67951       -1.88436
H         11.93267       -2.15698        1.48632
H         13.36354       -2.97792        2.19143
H         13.43442       -2.25565        0.56860
H          8.75605        0.67037        3.83073
H          9.09584       -0.98059        3.28983
H         10.64738       -0.05938        1.52584
H         10.33591        1.58018        2.10404
H          7.91501        1.34408        1.50677
H          8.17180       -0.33516        1.03032
H          9.74884        0.40654       -0.77694
H          9.50973        2.08954       -0.30770
H          7.07887        1.92730       -0.87265
H          7.26533        0.21999       -1.27250
H          8.85125        0.81380       -3.12156
H          8.69738        2.52273       -2.72007
H          6.37115        0.71778       -3.65714
H          7.21247        1.91602       -4.65880
H          6.23336        2.44582       -3.27738
