46

C          3.36877        0.31224        1.60256
C          3.33670       -1.05553        0.91676
C          4.48955       -1.26330       -0.07383
C          4.44482       -2.63411       -0.75914
C          5.45325       -2.83087       -1.87696
O          6.85085       -2.75794       -1.37649
C          7.45396       -3.89748       -1.08949
O          6.99394       -5.02862       -1.17028
C          8.89233       -3.67633       -0.62047
P          9.58226       -5.31713       -0.22299
C          9.79268       -6.37128       -1.68853
C         10.20593       -7.75497       -1.17887
O         10.18621       -8.01872        0.01257
O         10.55843       -8.54759       -2.17878
C         10.95904       -9.93282       -1.83881
C          9.76920      -10.87658       -1.88672
C         10.20953      -12.33638       -1.69168
C          9.03579      -13.31799       -1.73990
C         11.09802       -5.07237        0.56949
C         12.15372       -4.89886        1.13890
H          2.52124        0.43278        2.29007
H          3.31749        1.12946        0.86816
H          4.29108        0.44865        2.18637
H          2.37946       -1.17729        0.38253
H          3.35996       -1.85319        1.67829
H          5.45189       -1.13553        0.45001
H          4.45500       -0.47160       -0.84246
H          3.45487       -2.78066       -1.22528
H          4.54771       -3.44721       -0.02190
H          5.41552       -2.01799       -2.61271
H          5.33126       -3.79918       -2.37662
H          8.93488       -3.05122        0.28427
H          9.50532       -3.17973       -1.38658
H          8.71690       -5.94907        0.68798
H         10.54087       -5.93010       -2.36213
H          8.82560       -6.41317       -2.21094
H         11.43662       -9.91393       -0.85080
H         11.70325      -10.17132       -2.60832
H          9.26042      -10.76737       -2.85783
H          9.04494      -10.59783       -1.10464
H         10.73467      -12.43538       -0.72751
H         10.94412      -12.60153       -2.46988
H          8.30322      -13.10683       -0.94756
H          9.38167      -14.35101       -1.60498
H          8.50975      -13.26690       -2.70411
H         13.08581       -4.75336        1.65283
