75

C          2.07789        6.36826        3.79270
C          3.54216        5.94708        3.93720
C          3.71781        4.45675        4.25054
C          5.18331        4.03463        4.39222
C          5.36667        2.53875        4.67282
C          6.84220        2.13637        4.79788
C          7.02467        0.64430        5.00546
O          8.44244        0.36187        5.09138
C          8.75639       -1.01410        5.20990
C         10.28307       -1.08740        5.21371
N         10.75624       -0.02269        6.19688
C         12.26947        0.08793        6.34221
C         12.88898        0.71653        5.08995
C         14.33113        1.17683        5.32817
C         12.75251       -1.33180        6.67322
O         12.34784       -2.25541        5.67726
C         10.92834       -2.41880        5.61891
C         10.62958       -3.54538        4.63742
O         11.00758       -4.74841        5.25205
C         10.83227       -5.89237        4.39953
C         11.31312       -7.12896        5.13869
C         11.09352       -8.41438        4.33235
C         11.62816       -9.66545        5.03773
C         11.37290      -10.95964        4.25927
C         11.93897      -12.20826        4.94242
C         11.67296      -13.50582        4.17132
C         12.25648      -14.74575        4.85276
H          1.98926        7.43880        3.56453
H          1.51299        6.17817        4.71719
H          1.58100        5.81459        2.98241
H          4.02135        6.54358        4.73185
H          4.08824        6.18710        3.00917
H          3.24080        3.85876        3.45418
H          3.17322        4.21140        5.17929
H          5.65663        4.61950        5.20040
H          5.72869        4.29777        3.46882
H          4.89456        1.95740        3.86241
H          4.82804        2.26819        5.59703
H          7.30576        2.67754        5.63951
H          7.38735        2.43433        3.88765
H          6.60112        0.07025        4.16163
H          6.53225        0.30054        5.93393
H          8.36068       -1.59663        4.35964
H          8.33253       -1.44814        6.13984
H         10.66559       -0.76734        4.23451
H         10.35015       -0.24141        7.11930
H         10.30763        0.85924        5.89407
H         12.42980        0.74653        7.21093
H         12.27770        1.58318        4.78611
H         12.86107       -0.00366        4.25935
H         14.39456        1.90584        6.14830
H         14.72533        1.65727        4.42493
H         14.99801        0.33707        5.56526
H         12.37821       -1.64298        7.66939
H         13.84845       -1.35641        6.70701
H         10.55491       -2.72693        6.61909
H         11.19440       -3.36547        3.69947
H          9.54910       -3.54836        4.38146
H         11.40480       -5.74369        3.46352
H          9.76228       -5.98539        4.12637
H         10.78197       -7.19423        6.10199
H         12.38231       -7.00730        5.37517
H         11.57879       -8.32048        3.34509
H         10.01582       -8.54193        4.12997
H         11.16941       -9.74428        6.03888
H         12.71227       -9.54915        5.21078
H         11.80806      -10.86934        3.24830
H         10.28617      -11.08597        4.10892
H         11.51338      -12.29495        5.95798
H         13.02757      -12.08524        5.08280
H         12.08897      -13.41411        3.15361
H         10.58484      -13.63329        4.04123
H         13.34835      -14.66521        4.96166
H         12.04725      -15.65821        4.27814
H         11.83487      -14.88408        5.85961
