98

C          0.99506       -0.16853       -2.98335
C          2.45162       -0.10268       -2.51642
C          3.14909        1.21368       -2.87833
C          4.60392        1.28863       -2.40309
C          5.30551        2.60243       -2.76341
C          6.75226        2.68020       -2.26439
C          7.46581        3.98427       -2.63673
C          8.89851        4.07017       -2.10004
C          9.62159        5.36679       -2.47915
C         11.03916        5.46347       -1.90390
C         11.76651        6.74895       -2.31783
C         13.15247        6.85494       -1.70706
O         13.78539        8.05378       -2.20121
C         15.04485        8.32063       -1.61910
C         15.47316        9.71242       -2.08887
C         14.58177       10.77468       -1.39476
N         14.74437       12.14284       -1.83160
C         14.59180       12.28009       -3.27609
C         15.50856       11.31784       -4.03414
N         15.35767        9.86197       -3.60462
C         16.34260        9.05759       -4.44531
C         16.17933        7.54085       -4.58640
C         14.85632        6.96327       -5.11851
C         14.40439        7.45513       -6.51067
S         12.97717        8.53975       -6.36078
O         11.80606        7.77350       -6.00504
O         13.36901        9.68762       -5.55654
O         12.81353        9.09872       -7.86391
C         14.86153       13.72878       -3.70880
C         14.45906       14.09003       -5.14921
C         12.95143       14.00683       -5.45459
C         12.04783       14.87987       -4.56703
C         12.34988       16.38177       -4.65250
C         11.44149       17.25045       -3.78590
O         10.03777       17.08725       -4.11250
C          9.56276       17.88452       -5.11968
O         10.25216       18.67010       -5.74234
C          8.11112       17.64513       -5.31508
C          7.42229       18.31891       -6.24285
H          0.52574       -1.12315       -2.70853
H          0.92062       -0.06507       -4.07635
H          0.39474        0.63746       -2.53535
H          3.01703       -0.94380       -2.95245
H          2.49478       -0.24614       -1.42336
H          2.58040        2.05695       -2.44768
H          3.11347        1.35568       -3.97318
H          5.17147        0.44345       -2.83122
H          4.63599        1.14753       -1.30819
H          4.73100        3.44895       -2.34757
H          5.28835        2.73690       -3.85952
H          7.32362        1.82482       -2.66600
H          6.76413        2.56007       -1.16670
H          6.88267        4.84124       -2.25628
H          7.47858        4.09307       -3.73563
H          9.47961        3.20695       -2.46991
H          8.88004        3.97127       -1.00043
H          9.02994        6.23141       -2.13115
H          9.66700        5.45519       -3.57869
H         11.62616        4.58695       -2.22972
H         10.98954        5.40277       -0.80297
H         11.17820        7.62980       -2.01439
H         11.84668        6.79407       -3.41610
H         13.77669        5.97867       -1.97142
H         13.10070        6.90539       -0.60378
H         15.78450        7.53792       -1.86507
H         14.97851        8.35220       -0.51385
H         16.53421        9.88641       -1.85039
H         14.78483       10.70722       -0.31675
H         13.52940       10.48028       -1.54017
H         15.62638       12.54799       -1.51066
H         13.54421       12.01954       -3.51302
H         16.56426       11.58328       -3.86910
H         15.29711       11.32629       -5.10943
H         14.40062        9.57196       -3.89106
H         17.33766        9.28383       -4.03803
H         16.28616        9.52499       -5.43726
H         16.41481        7.03417       -3.64243
H         16.99454        7.25672       -5.27290
H         14.05688        7.12683       -4.38320
H         14.98019        5.87358       -5.17242
H         14.07481        6.62984       -7.15456
H         15.17325        8.02254       -7.05337
H         12.01275        8.69487       -8.25386
H         15.93444       13.94711       -3.56508
H         14.32376       14.36989       -2.99441
H         15.00411       13.45900       -5.87078
H         14.81698       15.11184       -5.34466
H         12.61205       12.95924       -5.38986
H         12.80528       14.29580       -6.50777
H         12.11216       14.55166       -3.51455
H         11.00210       14.70828       -4.86280
H         12.28518       16.72363       -5.69749
H         13.38180       16.59295       -4.32446
H         11.70873       18.31037       -3.89228
H         11.50555       16.95913       -2.72785
H          7.64135       16.90702       -4.66356
H          7.92135       19.05546       -6.87476
H          6.35492       18.15675       -6.38908
