84

C         11.56035       -9.34630       -1.44375
C         11.36169       -7.83045       -1.36560
C         11.66740       -7.25017        0.01934
C         11.49316       -5.73071        0.10953
C         11.81040       -5.16896        1.49830
C         11.66744       -3.64754        1.61185
C         12.00315       -3.13056        3.01302
C         11.89112       -1.61103        3.18150
C         12.24559       -1.17918        4.60775
C         12.16804        0.31814        4.85171
O         12.52850        0.53372        6.22627
C         12.52741        1.87442        6.64981
C         12.94373        1.82811        8.13049
C         11.90821        0.97905        8.92052
N         11.64492        1.77058       10.12591
C         12.17959        2.99599        9.99181
N         12.14605        3.93658       10.94026
N         12.76958        3.16283        8.78564
C         13.56666        4.33597        8.39362
C         12.78833        5.63612        8.21472
O         12.58601        6.23729        9.49353
C         11.88061        7.49722        9.43556
C         11.80853        8.07677       10.83340
C         14.39904        1.30797        8.24225
C         15.09338        1.41669        9.60420
O         14.42838        0.71890       10.70686
C         14.34011       -0.63264       10.70617
O         14.70584       -1.35992        9.80700
C         13.74365       -1.15912       12.00319
S         12.36079       -0.22764       12.75676
C         16.57173        1.02942        9.49489
O         17.22961        1.09656       10.77661
C         17.50878        2.34769       11.23895
O         17.28368        3.36809       10.61706
C         18.09234        2.28812       12.63027
S         16.76205        2.50023       13.87496
H         11.32966       -9.73284       -2.44586
H         10.91171       -9.87233       -0.72736
H         12.59947       -9.62466       -1.21209
H         10.32380       -7.57922       -1.64285
H         12.00173       -7.33520       -2.11540
H         12.70203       -7.51393        0.30273
H         11.01863       -7.73716        0.76908
H         10.45830       -5.46265       -0.16737
H         12.14176       -5.24331       -0.63956
H         12.83987       -5.45538        1.77773
H         11.15347       -5.65080        2.24402
H         10.63760       -3.35197        1.34516
H         12.32478       -3.15977        0.87089
H         13.02840       -3.44447        3.27703
H         11.34183       -3.62233        3.74801
H         10.86662       -1.28460        2.93278
H         12.55780       -1.10862        2.45958
H         13.26626       -1.51494        4.85345
H         11.57367       -1.68000        5.32381
H         11.14780        0.70741        4.66983
H         12.86495        0.87300        4.19470
H         11.52257        2.33707        6.56585
H         13.23346        2.48630        6.05085
H         12.28241       -0.01827        9.17058
H         10.98264        0.85356        8.34098
H         11.63105        1.29717       11.04161
H         11.53203        3.79016       11.73269
H         12.34140        4.91270       10.65676
H         14.02933        4.08517        7.43208
H         14.38859        4.50552        9.11082
H         11.82357        5.44800        7.70819
H         13.38386        6.31623        7.57930
H         10.87271        7.32888        9.01510
H         12.42590        8.17164        8.75229
H         11.25447        7.41599       11.51467
H         11.28536        9.04158       10.80855
H         12.81313        8.24440       11.24306
H         15.02393        1.88503        7.54035
H         14.40780        0.27460        7.87377
H         15.05527        2.45358        9.96294
H         14.54837       -1.24678       12.74694
H         13.36296       -2.16820       11.80881
H         13.11368        0.76761       13.28445
H         17.05965        1.71937        8.79167
H         16.70037       -0.00489        9.16134
H         18.84919        3.07007       12.75319
H         18.53258        1.30583       12.83491
H         16.50620        3.79756       13.58274
