85

C          2.36130       -1.66669        1.85455
C          3.79450       -1.42680        1.37280
C          4.03090       -0.00055        0.86271
C          5.45812        0.24231        0.36120
C          5.69207        1.66520       -0.15744
C          7.11341        1.89146       -0.68260
C          7.34470        3.30630       -1.22557
C          8.75128        3.49324       -1.80550
C          8.94711        4.87759       -2.42293
N         10.24051        4.93049       -3.13114
C         11.06302        5.97807       -3.28774
N         10.61328        7.24963       -3.28873
C          9.36510        7.71991       -3.90759
C          9.59778        8.08941       -5.38292
C          8.33006        8.42877       -6.17951
C          7.70451        7.27355       -7.05800
C          7.17315        5.94077       -6.39434
C          5.97402        5.91963       -5.36209
C          4.53637        6.47001       -5.72406
C          3.69324        5.86543       -6.91805
C          3.27065        4.33967       -6.94008
C          2.43572        3.76091       -5.73651
F          1.39341        4.55422       -5.44600
F          1.98106        2.54635       -6.08241
F          3.20632        3.62780       -4.63770
F          2.51316        4.19844       -8.05464
F          4.38768        3.57717       -7.07676
F          2.55866        6.60529       -6.95659
F          4.38657        6.08181       -8.06619
F          3.80414        6.33202       -4.58771
F          4.66873        7.79437       -5.98376
F          5.85653        4.62476       -4.97073
F          6.36763        6.63870       -4.26524
F          6.87185        5.09475       -7.39955
F          8.23791        5.39772       -5.70145
F          6.71166        7.79801       -7.80707
F          8.70440        6.85823       -7.89553
F          7.35609        8.94569       -5.36691
F          8.64766        9.39809       -7.09218
N         12.38713        5.74196       -3.42115
C         13.34744        6.61409       -4.10456
C         14.26368        5.77524       -5.00716
C         15.18097        6.60265       -5.92195
C         14.71837        6.77991       -7.41833
C         13.35899        7.50690       -7.75519
C         13.18313        9.02788       -7.39400
F         14.20221        9.76269       -7.83800
F         12.03848        9.46579       -7.94251
F         13.07986        9.18927       -6.04613
F         13.18127        7.39537       -9.08713
F         12.33984        6.82594       -7.12586
F         15.70159        7.41943       -8.09028
F         14.58294        5.52022       -7.92988
F         15.41763        7.84782       -5.39447
F         16.38763        5.96829       -6.01160
H          2.22591       -2.69417        2.21886
H          1.63515       -1.50392        1.04410
H          2.09608       -0.98571        2.67693
H          4.03882       -2.14351        0.57045
H          4.50070       -1.63997        2.19314
H          3.79884        0.71766        1.66875
H          3.31626        0.21834        0.04971
H          5.68942       -0.47983       -0.44170
H          6.17329        0.02767        1.17459
H          5.47815        2.38955        0.64756
H          4.96862        1.88371       -0.96256
H          7.32570        1.15897       -1.48130
H          7.84057        1.68313        0.12137
H          7.17226        4.04437       -0.42379
H          6.59912        3.52375       -2.00974
H          8.91412        2.73199       -2.59012
H          9.51335        3.31863       -1.02860
H          8.94098        5.66592       -1.65613
H          8.12685        5.07687       -3.12677
H         10.60581        4.03119       -3.43433
H         11.32490        7.95896       -3.13546
H          9.01570        8.58748       -3.33572
H          8.60777        6.94312       -3.80208
H         10.12672        7.28073       -5.90332
H         10.23499        8.98292       -5.44816
H         12.73573        4.86664       -3.03924
H         13.94660        7.17591       -3.37366
H         12.77464        7.33610       -4.69476
H         13.67117        5.08999       -5.62768
H         14.93684        5.16065       -4.39168
