126

C         27.22771       -2.61095      -12.46032
C         26.20341       -2.61749      -11.32395
C         26.73406       -3.24778      -10.03239
C         25.71073       -3.26191       -8.89376
C         26.23067       -3.89692       -7.60050
C         25.19818       -3.90404       -6.46980
C         25.70198       -4.54138       -5.17148
C         24.66611       -4.51557       -4.04421
C         25.15277       -5.14340       -2.73500
C         24.11585       -5.06922       -1.61067
C         24.57748       -5.69770       -0.29284
C         23.53200       -5.59048        0.82060
C         23.97189       -6.20336        2.15328
C         22.91839       -6.05117        3.25395
C         23.32771       -6.65608        4.60003
C         22.26838       -6.44684        5.68558
C         22.64088       -7.04829        7.04427
C         21.56561       -6.78479        8.10362
C         21.88666       -7.40954        9.46688
C         20.75047       -7.11256       10.45069
N         20.93180       -7.76994       11.76051
N         20.57949       -9.01403       11.98072
N         20.98962       -9.35804       13.18969
C         21.61781       -8.30010       13.73298
N         21.59818       -7.28088       12.83910
C         22.07252       -5.88610       12.97351
C         20.94846       -4.86502       13.19532
C         20.02781       -5.12708       14.39121
C         18.92449       -4.06609       14.49164
C         17.86024       -4.36015       15.55340
C         16.73482       -3.32016       15.54691
C         15.56381       -3.64402       16.47962
C         14.43670       -2.61146       16.37916
C         13.19550       -2.94021       17.21396
C         12.07733       -1.90827       17.03705
C         10.78766       -2.23422       17.79567
C          9.68370       -1.19732       17.56556
C          8.36305       -1.51928       18.27067
C          7.27174       -0.47495       18.01653
C          5.93704       -0.79331       18.69734
C          4.85814        0.25839       18.42900
C         22.23267       -8.26450       15.08758
C         22.30446       -9.66469       15.73901
C         23.03529       -9.61117       17.03309
C         22.54669       -9.89871       18.24534
F         21.28707      -10.26878       18.45282
F         23.24599       -9.85585       19.36271
F         24.34017       -9.23222       16.94162
H         26.81844       -2.15259      -13.37125
H         27.54539       -3.63298      -12.71533
H         28.12935       -2.04618      -12.17958
H         25.29884       -3.16099      -11.64540
H         25.87703       -1.58471      -11.11461
H         27.63749       -2.70266       -9.70608
H         27.06372       -4.28098      -10.24094
H         24.80632       -3.80238       -9.22486
H         25.38446       -2.22767       -8.68501
H         27.13451       -3.35765       -7.26614
H         26.55487       -4.93222       -7.80665
H         24.29200       -4.43698       -6.80804
H         24.87857       -2.86706       -6.26404
H         26.61608       -4.01881       -4.83867
H         26.00435       -5.58491       -5.36878
H         23.75099       -5.03566       -4.37820
H         24.36557       -3.46994       -3.85396
H         26.08023       -4.63981       -2.41021
H         25.42670       -6.19808       -2.91328
H         23.18493       -5.56262       -1.94131
H         23.84991       -4.01202       -1.43386
H         25.51323       -5.21271        0.03632
H         24.82855       -6.75969       -0.46059
H         22.59687       -6.07537        0.48945
H         23.28036       -4.52672        0.97799
H         24.91419       -5.73041        2.48116
H         24.20223       -7.27328        2.00857
H         21.97400       -6.51590        2.92044
H         22.69447       -4.97875        3.39270
H         24.28263       -6.21023        4.92878
H         23.52047       -7.73570        4.47602
H         21.31156       -6.88241        5.34866
H         22.08350       -5.36503        5.80640
H         23.60424       -6.63065        7.38375
H         22.79471       -8.13557        6.93851
H         20.60006       -7.18112        7.74585
H         21.42782       -5.69580        8.21889
H         22.84051       -7.01482        9.85290
H         21.99833       -8.50016        9.37113
H         19.79613       -7.50998       10.08144
H         20.62831       -6.03838       10.63303
H         22.66369       -5.65466       12.07681
H         22.76218       -5.90871       13.82726
H         20.34037       -4.77173       12.28182
H         21.45481       -3.89358       13.31298
H         20.61629       -5.14714       15.32436
H         19.55361       -6.11989       14.29447
H         18.42670       -3.97974       13.50972
H         19.38296       -3.08186       14.68603
H         18.32595       -4.40492       16.55267
H         17.43085       -5.36081       15.36828
H         16.34814       -3.22376       14.51674
H         17.14963       -2.33094       15.80655
H         15.92073       -3.70838       17.52191
H         15.16614       -4.64349       16.22985
H         14.13684       -2.51410       15.32060
H         14.82346       -1.62039       16.67402
H         13.47145       -3.01041       18.28040
H         12.81932       -3.93881       16.92988
H         11.84501       -1.81380       15.96141
H         12.44516       -0.91623       17.35296
H         11.00228       -2.31146       18.87579
H         10.42413       -3.22988       17.48588
H          9.49926       -1.10289       16.48071
H         10.04136       -0.20659       17.89707
H          8.53846       -1.60894       19.35710
H          8.00450       -2.50960       17.93862
H          7.10904       -0.37687       16.92840
H          7.62667        0.51365       18.35802
H          6.09814       -0.88858       19.78442
H          5.58305       -1.78086       18.35594
H          5.17267        1.25072       18.78564
H          3.91447        0.00742       18.93275
H          4.64764        0.34640       17.35240
H         21.65267       -7.57959       15.72794
H         23.24633       -7.83811       15.01409
H         22.82103      -10.35982       15.05780
H         21.29657      -10.06635       15.90122
