59

C         11.28255        2.42797        2.24681
C         10.64839        1.25191        1.49912
C          9.36001        0.73897        2.15149
C          8.75826       -0.49634        1.47130
C          7.45248       -0.96003        2.13198
C          6.90535       -2.31156        1.64348
C          7.74403       -3.51636        2.03899
O          7.82622       -3.55216        3.48837
C          8.59070       -4.58430        4.01682
P         10.42808       -4.26492        3.84028
C         10.80386       -2.51692        4.11735
C         12.29757       -2.11346        3.94072
C         12.81691       -2.29181        2.49390
N         14.24972       -2.25688        2.31780
C         14.96900       -3.44315        2.77518
C         16.46451       -3.26053        2.57770
O         16.86054       -2.16313        3.40748
O         12.46286       -0.78364        4.40363
C         11.41468       -5.38135        4.87875
C         11.18713       -6.88133        4.56098
C         12.20874       -7.72574        5.23959
C         11.98603       -8.63214        6.19962
F         10.77458       -8.89036        6.68142
F         12.91948       -9.36734        6.76478
F         13.48564       -7.52533        4.81966
H         12.20556        2.76731        1.75859
H         11.53353        2.16619        3.28755
H         10.59651        3.28565        2.29251
H         11.37682        0.42349        1.41808
H         10.43708        1.54625        0.45829
H          8.61206        1.54928        2.16374
H          9.55148        0.51011        3.21707
H          9.51108       -1.30812        1.47500
H          8.57721       -0.28405        0.40431
H          6.67976       -0.19595        1.95812
H          7.58239       -1.00186        3.22562
H          6.82050       -2.31897        0.54447
H          5.88722       -2.45987        2.03343
H          8.76302       -3.44659        1.61210
H          7.29095       -4.45722        1.68218
H          8.38697       -5.57556        3.56673
H          8.39197       -4.64175        5.09872
H         10.78115       -4.58807        2.51055
H         10.47658       -2.27998        5.14224
H         10.15284       -1.95060        3.43238
H         12.91007       -2.71862        4.62815
H         12.35078       -1.50237        1.87448
H         12.45899       -3.24931        2.07326
H         14.66537       -1.41987        2.73056
H         14.63693       -4.30954        2.17817
H         14.79646       -3.69068        3.84675
H         16.67078       -3.04848        1.51441
H         16.98822       -4.18984        2.86366
H         17.78696       -1.94783        3.22297
H         12.15218       -0.16617        3.71741
H         11.18443       -5.15371        5.93093
H         12.46890       -5.11116        4.70758
H         11.25873       -7.05274        3.47268
H         10.18761       -7.20520        4.87912
