57

C          1.84229       -4.28388        4.33939
C          2.81413       -4.82801        3.28996
C          4.03088       -5.52336        3.91476
C          4.99990       -6.14181        2.90708
N          5.65996       -5.11887        2.08868
C          6.86348       -5.31153        1.50377
O          7.53442       -6.33782        1.63361
C          7.34497       -4.16085        0.59151
C          8.83323       -4.03833        0.54636
N          9.67946       -5.12878        0.51764
C         10.95979       -4.73763        0.45241
N         10.96021       -3.38357        0.43100
C          9.64753       -2.93573        0.48620
C         12.13755       -2.50794        0.29838
C         12.41297       -2.11227       -1.15064
C         12.16594       -5.62024        0.43048
C         11.84106       -7.13101        0.50857
O         10.67221       -7.53317        0.56832
N         12.91671       -7.95883        0.50154
C         12.70145       -9.41877        0.57607
C         13.08041      -10.03023        1.93006
C         12.22757       -9.54866        3.10830
C         12.61316      -10.22035        4.42793
C         14.29690       -7.48054        0.44067
H          0.97780       -3.79666        3.87013
H          2.33101       -3.54366        4.98962
H          1.46306       -5.09115        4.98215
H          3.13451       -3.99258        2.64120
H          2.29179       -5.54010        2.62977
H          3.67907       -6.33542        4.57037
H          4.57709       -4.81883        4.56458
H          4.46721       -6.85055        2.24994
H          5.79312       -6.70756        3.41278
H          5.15068       -4.26103        1.90249
H          6.91138       -3.19293        0.87680
H          6.96727       -4.39343       -0.41955
H          9.42570       -6.12706        0.64134
H          9.40971       -1.87867        0.47944
H         12.99381       -3.03480        0.73876
H         11.94736       -1.62481        0.92238
H         12.61828       -2.99014       -1.77737
H         13.29012       -1.45394       -1.18929
H         11.56234       -1.57079       -1.58401
H         12.83089       -5.34761        1.26748
H         12.74788       -5.42152       -0.48516
H         13.29594       -9.87662       -0.22943
H         11.64087       -9.59284        0.35987
H         14.14882       -9.85087        2.14247
H         12.97917      -11.12288        1.82429
H         11.16518       -9.73753        2.88666
H         12.32407       -8.45470        3.21291
H         12.48540      -11.31099        4.37117
H         11.99198       -9.85661        5.25725
H         13.66401      -10.02351        4.68718
H         14.47746       -6.85843       -0.44851
H         14.95869       -8.35008        0.37462
H         14.58528       -6.91403        1.33978
