62

F          1.90029        0.85255       -0.36014
C          3.18104        0.34227       -0.18023
C          3.15350       -0.62997        1.00043
C          4.55659       -1.16925        1.26158
N          4.64976       -2.33531        2.23700
C          3.81098       -2.16861        3.48428
C          4.21614       -3.24218        4.52304
N          4.20910       -4.59677        3.97607
C          4.85673       -4.77477        2.69152
C          4.49603       -3.73701        1.59357
C          3.18596       -3.93243        0.86877
C          1.95639       -4.18279        1.49911
C          0.81524       -4.35643        0.71067
N          0.81820       -4.30189       -0.62784
C          1.99514       -4.08535       -1.22967
C          3.19247       -3.89983       -0.53297
C          5.53350       -2.89133        5.15030
N          5.82848       -2.75537        6.39951
N          7.17984       -2.41512        6.46915
C          7.61502       -2.34558        5.24094
O          6.61669       -2.63767        4.31497
S          9.20863       -1.90433        4.73263
C          9.17585       -2.32314        2.94783
C         10.57757       -2.09127        2.37883
C         10.64780       -2.42637        0.88332
C         12.04890       -2.23512        0.29125
C         12.13317       -2.60396       -1.19314
C         13.53280       -2.42319       -1.79194
C         13.61241       -2.82702       -3.26585
H          3.86270        1.19037       -0.00294
H          3.47711       -0.16740       -1.11216
H          2.44969       -1.43646        0.76054
H          2.76857       -0.09309        1.87881
H          5.20084       -0.38466        1.68478
H          5.02909       -1.52525        0.33469
H          5.62824       -2.32652        2.57861
H          2.75844       -2.26198        3.19758
H          3.99033       -1.15555        3.86774
H          3.49159       -3.20060        5.34775
H          3.30416       -5.05105        4.05401
H          4.62118       -5.77426        2.30626
H          5.95086       -4.74245        2.83242
H          5.29855       -3.75524        0.84092
H          1.85806       -4.24683        2.58181
H         -0.15166       -4.54833        1.18340
H          1.98178       -4.05837       -2.32230
H          4.12139       -3.73797       -1.08398
H          8.44085       -1.67889        2.44169
H          8.87557       -3.37489        2.83874
H         11.30168       -2.71052        2.93173
H         10.87331       -1.04200        2.54032
H          9.92820       -1.79659        0.33006
H         10.32757       -3.47172        0.72808
H         12.76880       -2.84709        0.86128
H         12.36456       -1.18693        0.43049
H         11.41144       -1.99358       -1.76514
H         11.81476       -3.65326       -1.32603
H         14.25591       -3.01622       -1.20716
H         13.84308       -1.37102       -1.67806
H         13.35061       -3.88648       -3.40447
H         14.62416       -2.68169       -3.66721
H         12.92266       -2.23173       -3.88266
