49

F         -0.07678       -1.53706       -0.66565
C          1.23549       -1.55107       -0.19564
C          2.17764       -1.59848       -1.39849
C          3.66859       -1.40433       -1.06918
O          4.47059       -1.50897       -2.24831
C          4.44746       -0.35895       -3.05992
N          5.03021        0.77966       -2.33541
C          4.68855        0.88805       -1.04318
N          5.05839        1.94744       -0.29735
N          3.90671       -0.05825       -0.48564
C          5.85947        1.77349       -3.06002
C          7.18051        2.10809       -2.39578
C          7.40300        3.43681       -1.99693
C          8.58632        3.81016       -1.35604
C          9.55990        2.84191       -1.11011
C          9.35374        1.52453       -1.52564
C          8.17749        1.12875       -2.17747
C          8.02654       -0.29656       -2.64607
C          4.19208       -2.47633       -0.09873
C          5.70301       -2.37698        0.18112
C          6.18528       -2.42564        1.63061
C          6.06261       -1.09831        2.46069
Br         4.20422       -0.53948        2.91532
F          6.73373       -1.19083        3.60879
F          6.60943       -0.08241        1.73321
Br         5.39076       -3.90546        2.63895
F          7.55193       -2.63053        1.58520
H          1.34320       -2.43027        0.45780
H          1.37737       -0.63729        0.40619
H          1.85715       -0.81038       -2.09592
H          2.07081       -2.56316       -1.91446
H          3.42505       -0.11207       -3.39604
H          5.07785       -0.57360       -3.92965
H          5.82393        2.53266       -0.63444
H          4.96781        1.87613        0.71072
H          3.76722        0.01327        0.52533
H          5.27225        2.69282       -3.20739
H          6.02155        1.33906       -4.05714
H          6.64127        4.19232       -2.20859
H          8.74516        4.84655       -1.05911
H         10.48818        3.11193       -0.60637
H         10.13280        0.78010       -1.35099
H          8.96477       -0.84810       -2.51696
H          7.76241       -0.34803       -3.71398
H          7.24680       -0.84325       -2.09612
H          3.95294       -3.45404       -0.53568
H          3.61331       -2.41470        0.83196
H          6.12622       -1.45911       -0.25202
H          6.22934       -3.20407       -0.31129
