56

C          8.62282       -6.90327        1.54837
O          8.53176       -5.52417        1.22279
C          8.91400       -4.68927        2.30046
C          8.78053       -3.24650        1.83424
O          9.14749       -2.41600        2.93256
C          9.09966       -1.03437        2.63480
C          9.50353       -0.31272        3.91253
O          9.53089        1.09112        3.64540
C          9.92704        1.84711        4.76572
C          9.93858        3.31699        4.34256
C         10.53919        4.21154        5.42075
C          9.70248        4.29321        6.71569
N          9.86642        5.69515        7.14071
C         10.34689        6.41090        6.10927
N         10.53839        7.73763        6.13982
N         10.61767        5.64830        5.03607
C         11.36915        6.12041        3.88126
C          9.23773        6.23463        8.35414
C          7.97492        7.08986        8.12644
C          6.97217        6.45954        7.15438
C          5.75851        7.36426        6.90879
S          4.96671        6.84505        5.36332
O          5.86982        7.14069        4.27134
O          4.40990        5.52340        5.53357
Cl         3.39969        8.19239        5.26394
H          8.30586       -7.46386        0.66118
H          7.96258       -7.16385        2.39624
H          9.65877       -7.19075        1.80716
H          9.95982       -4.88852        2.60796
H          8.26768       -4.85765        3.18468
H          7.73987       -3.04360        1.51859
H          9.44199       -3.06419        0.96636
H          8.08366       -0.72308        2.32285
H          9.79870       -0.77358        1.81603
H         10.50123       -0.66321        4.23675
H          8.78211       -0.53971        4.71944
H         10.93814        1.53980        5.10925
H          9.23141        1.67890        5.61510
H          8.91837        3.65057        4.09804
H         10.53446        3.38086        3.41982
H         11.56485        3.86975        5.65624
H         10.06718        3.61231        7.49421
H          8.64042        4.07177        6.51796
H         10.32680        8.27816        6.96733
H         11.00421        8.21115        5.37674
H         10.92582        7.04607        3.48943
H         11.29265        5.37551        3.08334
H         12.43420        6.27983        4.11467
H          9.98863        6.80469        8.92461
H          8.99236        5.35872        8.96862
H          8.24557        8.09274        7.75812
H          7.51741        7.25261        9.11455
H          6.63134        5.48139        7.52475
H          7.47063        6.28396        6.18824
H          6.03916        8.41478        6.75186
H          4.99924        7.30048        7.69846
