109

C          1.00282        0.04818       -0.52302
C          2.52333        0.02954       -0.34410
C          3.07930       -1.35780       -0.00354
C          4.60413       -1.39228        0.14091
C          5.16200       -2.78309        0.46029
C          6.69171       -2.83138        0.52049
C          7.25811       -4.22510        0.81128
C          8.78623       -4.29090        0.72557
C          9.36484       -5.68773        0.97325
C         10.87965       -5.76375        0.75787
C         11.46678       -7.16666        0.94535
C         12.95227       -7.25332        0.58264
C         13.54355       -8.66006        0.71098
C         15.00677       -8.73385        0.26776
C         15.60203      -10.14204        0.36420
C         17.04024      -10.18922       -0.16303
C         17.75049      -11.53504       -0.07505
C         16.98028      -12.72508       -0.65455
N         17.53292      -13.87132        0.13700
C         17.85166      -13.27603        1.56434
O         17.96915      -11.90165        1.30840
C         19.17822      -13.88130        2.04406
C         20.39576      -13.59110        1.15894
C         21.69902      -14.15300        1.74141
C         22.92533      -13.84196        0.87771
C         24.22976      -14.38253        1.47327
C         25.43554      -14.03740        0.61312
O         26.60607      -14.56696        1.27176
C         27.79581      -14.29121        0.64804
O         27.87213      -13.65914       -0.38787
C         28.92319      -14.86667        1.42100
C         30.18936      -14.69796        1.02426
C         16.64882      -13.60728        2.46554
C         16.63969      -12.90801        3.84084
O         16.26532      -11.55319        3.60467
C         16.84184      -10.61157        4.52806
C         16.49946       -9.21528        4.08409
C         15.21083       -8.69918        4.28569
C         14.90086       -7.39659        3.89208
C         15.87918       -6.59135        3.30052
C         17.16458       -7.09776        3.09101
C         17.46825       -8.40662        3.47522
C         15.67249      -13.60389        4.80171
H          0.63721        1.05539       -0.76610
H          0.48786       -0.28018        0.39216
H          0.68879       -0.62366       -1.33607
H          2.81099        0.74052        0.44895
H          3.00673        0.39580       -1.26589
H          2.77337       -2.07338       -0.78748
H          2.61290       -1.71884        0.93035
H          4.91482       -0.68289        0.92814
H          5.06405       -1.02388       -0.79339
H          4.80921       -3.49874       -0.30355
H          4.74259       -3.13632        1.41889
H          7.05416       -2.12073        1.28406
H          7.09937       -2.47126       -0.44100
H          6.82704       -4.94704        0.09495
H          6.92647       -4.55884        1.81033
H          9.22743       -3.57749        1.44380
H          9.10265       -3.94340       -0.27403
H          8.86997       -6.40888        0.29880
H          9.11740       -6.01551        1.99817
H         11.38664       -5.05824        1.43955
H         11.11234       -5.41224       -0.26296
H         10.90114       -7.88139        0.32137
H         11.31822       -7.49594        1.98915
H         13.52984       -6.55642        1.21404
H         13.08821       -6.89943       -0.45466
H         12.94122       -9.36201        0.10640
H         13.45959       -9.00557        1.75512
H         15.61088       -8.04565        0.87918
H         15.08766       -8.37374       -0.77337
H         14.95515      -10.82497       -0.21651
H         15.58097      -10.48684        1.40910
H         17.66152       -9.46840        0.39158
H         17.07583       -9.86650       -1.21788
H         18.73751      -11.46051       -0.56994
H         17.14758      -12.88664       -1.72511
H         15.90620      -12.66024       -0.44897
H         18.41644      -14.20935       -0.27086
H         16.88431      -14.66315        0.20916
H         19.04497      -14.96659        2.19178
H         19.35950      -13.46503        3.04602
H         20.49164      -12.50309        1.02147
H         20.27211      -14.01967        0.14206
H         21.60545      -15.24416        1.87465
H         21.84534      -13.73457        2.75166
H         23.00694      -12.74964        0.74342
H         22.77879      -14.26291       -0.13260
H         24.16826      -15.47651        1.58874
H         24.38058      -13.96831        2.48330
H         25.55341      -12.94919        0.48931
H         25.36048      -14.47457       -0.39544
H         28.66777      -15.42354        2.32351
H         30.41525      -14.13343        0.11804
H         31.02225      -15.11453        1.58949
H         16.62218      -14.69775        2.62273
H         15.71540      -13.31095        1.95893
H         17.65803      -12.93443        4.27591
H         17.93950      -10.74572        4.54640
H         16.46031      -10.79428        5.54975
H         14.44876       -9.32027        4.76069
H         13.89639       -7.00385        4.05406
H         15.64008       -5.56934        3.00482
H         17.93153       -6.47098        2.63440
H         18.47493       -8.80167        3.32014
H         14.65916      -13.63093        4.37725
H         15.62569      -13.06335        5.75542
H         15.99286      -14.63280        5.01876
