83

C          4.17109        3.16798       -4.31665
C          5.54874        2.89628       -3.70716
C          5.74588        3.60152       -2.35756
C          7.11366        3.30381       -1.76089
O          7.31200        4.00977       -0.48676
C          6.84383        3.39366        0.61094
O          6.28318        2.31415        0.63545
C          7.13388        4.20178        1.86969
C          8.56424        3.94440        2.39840
O          8.97312        2.58448        2.36892
C          8.16986        1.75767        3.17215
N          8.01930        2.37115        4.50197
C          8.33117        3.65087        4.77765
N          8.28287        4.10623        6.04584
C          7.73538        3.35583        7.17476
C          6.96448        4.28131        8.11950
O          5.79792        4.82116        7.44597
C          5.93458        6.00013        6.79191
O          7.00326        6.56916        6.61951
C          4.61208        6.47333        6.25072
S          4.31560        5.69086        4.61526
C          6.44340        3.48526        9.32189
O          5.46411        4.21481       10.07056
C          5.93622        5.24297       10.84170
O          7.11432        5.49777       10.97409
C          4.78873        6.02141       11.43685
S          4.21936        7.28781       10.23559
N          8.70506        4.46748        3.77180
C          9.40585        5.75222        3.98833
C         10.87085        5.59903        4.42431
C         11.74313        4.78946        3.45719
C         13.20740        4.67722        3.89921
C         14.03428        3.75505        2.99541
C         15.50100        3.62329        3.41976
C         16.30040        2.64134        2.55592
C         17.76817        2.50351        2.97657
C         18.55149        1.50064        2.12563
H          4.05321        2.65003       -5.27749
H          4.01700        4.24189       -4.49649
H          3.36580        2.82278       -3.65193
H          6.33489        3.21820       -4.41015
H          5.68414        1.81037       -3.57264
H          4.96463        3.27241       -1.65471
H          5.63432        4.69072       -2.48215
H          7.92701        3.67866       -2.39484
H          7.25119        2.22908       -1.58077
H          6.38519        3.93124        2.62545
H          7.04409        5.27778        1.66755
H          9.29786        4.46420        1.77182
H          8.70772        0.80565        3.27406
H          7.17751        1.58482        2.72246
H          7.63647        1.79617        5.24257
H          8.23747        5.12503        6.16188
H          8.54013        2.84964        7.73278
H          7.02297        2.58925        6.82779
H          7.59499        5.11751        8.45426
H          4.61332        7.56325        6.15427
H          3.78716        6.15423        6.89674
H          5.16745        6.48544        3.92429
H          7.29137        3.20742        9.96502
H          5.91427        2.58198        8.99000
H          5.10027        6.49803       12.37149
H          3.92082        5.37576       11.61384
H          5.30367        8.09054       10.35529
H          8.83517        6.36713        4.70038
H          9.34547        6.28313        3.02771
H         10.91203        5.14621        5.42835
H         11.27441        6.61838        4.53819
H         11.70251        5.24468        2.45147
H         11.33185        3.77132        3.35039
H         13.24656        4.29928        4.93600
H         13.66405        5.68124        3.92570
H         13.98684        4.12188        1.95505
H         13.56910        2.75320        2.98217
H         15.54761        3.29917        4.47448
H         15.98231        4.61620        3.38829
H         16.25307        2.95933        1.49931
H         15.81775        1.64833        2.59245
H         17.81402        2.20137        4.03669
H         18.25499        3.49191        2.92405
H         18.11210        0.49376        2.18757
H         19.59737        1.42572        2.45284
H         18.55664        1.79300        1.06497
