62

C          5.02534        6.56218      -12.14087
C          6.47983        6.62390      -11.66759
C          6.71989        5.87345      -10.35230
C          8.18107        5.90706       -9.88957
C          8.40874        5.16802       -8.56336
C          9.88241        5.12657       -8.18960
O         10.08179        4.36376       -6.94903
C         10.22795        5.05858       -5.81408
O         10.25305        6.27721       -5.72828
C         10.34493        4.12053       -4.61794
C         11.47795        4.51564       -3.65510
N         11.77986        3.47156       -2.67768
C         12.97099        3.78383       -1.90704
C         12.86529        5.12116       -1.16862
N         12.55185        6.19754       -2.18543
C         11.30082        5.93327       -3.04042
C         10.04052        6.21252       -2.22003
C         10.01754        7.58890       -1.52830
C         10.21121        8.79640       -2.45893
C         10.10607       10.13498       -1.72550
C         10.72126        2.77643       -1.96631
C         11.12655        1.33550       -1.62399
O         12.24045        0.87448       -1.75212
O         10.06258        0.67452       -1.13225
C         10.31398       -0.69705       -0.72184
H          4.88898        7.09961      -13.08893
H          4.34492        7.01338      -11.40336
H          4.69933        5.52345      -12.29878
H          6.78440        7.67724      -11.54524
H          7.13962        6.20754      -12.44764
H          6.40067        4.82294      -10.46895
H          6.07423        6.30007       -9.56450
H          8.51087        6.95539       -9.78746
H          8.81860        5.46180      -10.67326
H          8.02755        4.13700       -8.63719
H          7.84313        5.66422       -7.75771
H         10.30037        6.13159       -8.04935
H         10.47431        4.58041       -8.93509
H         10.52671        3.09732       -4.96825
H          9.36392        4.12880       -4.11662
H         12.39376        4.58466       -4.27886
H         13.83973        3.81238       -2.59061
H         13.17548        2.97611       -1.19496
H         13.80168        5.40213       -0.66847
H         12.05386        5.13092       -0.43036
H         13.35690        6.29788       -2.81924
H         12.42429        7.10502       -1.71661
H         11.36234        6.66289       -3.85846
H          9.86104        5.42083       -1.47785
H          9.20387        6.16221       -2.93212
H         10.75740        7.62649       -0.70239
H          9.04978        7.68553       -1.01315
H          9.46416        8.74604       -3.26700
H         11.18938        8.74804       -2.97179
H          9.12263       10.25235       -1.24917
H         10.24365       10.97672       -2.41597
H         10.86780       10.22574       -0.93660
H          9.81947        2.72619       -2.58781
H         10.40058        3.25516       -1.01688
H          9.35224       -1.06756       -0.35756
H         11.06874       -0.72215        0.07348
H         10.66240       -1.28951       -1.57625
