82

C         12.47677        9.65984        2.72059
C         12.13304        8.16960        2.66204
C         12.49509        7.40549        3.94094
C         12.18653        5.90724        3.86205
C         12.53020        5.12848        5.13632
C         12.25019        3.62676        5.01889
C         12.57229        2.82726        6.28586
C         12.29403        1.32770        6.13806
C         12.58699        0.50776        7.39900
C         12.28690       -0.98553        7.22927
C         12.54254       -1.81533        8.49341
C         12.11724       -3.28911        8.38581
C         12.83343       -4.11662        7.30298
C         14.36623       -4.18792        7.41799
C         14.85593       -4.86233        8.70601
C         16.38847       -4.91128        8.83991
C         17.10315       -5.83127        7.84374
C         16.98040       -7.28962        8.27981
N         17.50874       -7.44126        9.63671
C         17.36448       -6.47656       10.54809
N         17.82031       -6.68865       11.81841
C         18.00823       -5.59937       12.78248
C         19.43763       -5.02682       12.88523
C         19.94442       -4.16844       11.74064
Br        20.51682       -5.24534       10.18158
Br        19.40083       -3.83717       14.47091
C         18.11987       -8.05317       12.29240
C         19.51063       -8.62352       11.91779
C         19.93059       -9.77462       12.83302
O         19.08477      -10.87908       12.48582
O         19.52488       -9.09004       10.55461
N         16.76541       -5.32149       10.21260
H         12.19848       10.17484        1.79077
H         13.55484        9.81559        2.87647
H         11.94958       10.15993        3.54690
H         12.65214        7.70610        1.80585
H         11.05507        8.04712        2.46142
H         11.95480        7.84857        4.79630
H         13.56894        7.54667        4.15813
H         12.73681        5.46936        3.01035
H         11.11584        5.76762        3.63003
H         11.95882        5.54357        5.98516
H         13.59507        5.28395        5.38484
H         12.82949        3.21582        4.17308
H         11.18840        3.47498        4.75595
H         11.98427        3.22714        7.13056
H         13.63210        2.97967        6.55690
H         12.88944        0.92899        5.29756
H         11.23761        1.18237        5.85162
H         11.99294        0.90545        8.24038
H         13.64513        0.64122        7.68734
H         12.88686       -1.37594        6.38918
H         11.23229       -1.11086        6.92681
H         11.99459       -1.36082        9.33502
H         13.61065       -1.74258        8.76844
H         11.03547       -3.33114        8.18016
H         12.24223       -3.77246        9.36941
H         12.58653       -3.71250        6.30968
H         12.42609       -5.14122        7.31493
H         14.79578       -3.17380        7.35334
H         14.74820       -4.73283        6.54041
H         14.44413       -5.88333        8.78228
H         14.45944       -4.31446        9.57680
H         16.78066       -3.88896        8.70784
H         18.16665       -5.56021        7.78402
H         16.67166       -5.69419        6.84490
H         17.56314       -7.95009        7.62696
H         15.93416       -7.63342        8.24464
H         18.23908       -8.15414        9.82306
H         17.72650       -5.99081       13.76839
H         17.31689       -4.76790       12.59048
H         20.16618       -5.80354       13.14626
H         20.84511       -3.62164       12.02942
H         19.18699       -3.46782       11.37153
H         17.33649       -8.73582       11.93149
H         18.03555       -8.01710       13.38716
H         20.26368       -7.82442       11.97899
H         19.81340       -9.49104       13.89347
H         20.99049      -10.01190       12.64722
H         19.45487      -11.69724       12.85051
H         19.29264      -10.04063       10.61248
H         16.45203       -4.71651       10.96184
