65

C          0.53490        6.52679        0.52411
C          2.05564        6.35666        0.54438
C          2.71366        6.63737       -0.81080
C          4.23469        6.45786       -0.80460
C          4.88097        6.70157       -2.17157
C          6.39808        6.49273       -2.17681
C          7.02164        6.65064       -3.56710
C          8.54162        6.43677       -3.57243
C          9.10438        6.47446       -4.98682
O         10.56054        6.43505       -5.04522
C         11.09905        5.19999       -4.69852
N         12.55721        5.32327       -4.86393
C         13.43128        4.62327       -5.62064
C         13.15735        3.42583       -6.46251
C         13.94573        2.17856       -5.98292
C         13.60724        1.64757       -4.58860
C         12.15981        1.09820       -4.36303
Br        11.63708       -0.26856       -5.64682
F         12.01771        0.63294       -3.11272
F         11.27984        2.15381       -4.48562
Br        14.88923        0.25064       -4.12149
F         13.73912        2.68042       -3.66120
N         14.65379        5.16167       -5.46649
N         14.55179        6.17177       -4.62538
N         13.30025        6.28315       -4.25385
C         12.86632        7.27907       -3.25542
C         12.41073        6.62613       -1.94623
O         13.30856        5.58280       -1.65959
C         13.11835        4.98378       -0.36247
C         14.21682        3.95242       -0.17167
O         15.51083        4.53512       -0.10540
H          0.09268        6.31529        1.50695
H          0.06702        5.84698       -0.20353
H          0.25095        7.55260        0.24599
H          2.30818        5.33097        0.86297
H          2.49262        7.02496        1.30563
H          2.46748        7.66510       -1.13102
H          2.27256        5.97135       -1.57350
H          4.47929        5.43581       -0.46503
H          4.68212        7.13888       -0.05937
H          4.65147        7.72653       -2.51083
H          4.42071        6.02739       -2.91503
H          6.62848        5.48437       -1.78985
H          6.87166        7.20314       -1.47683
H          6.79378        7.65334       -3.96624
H          6.54860        5.93206       -4.25826
H          8.76345        5.46880       -3.09056
H          9.03144        7.21900       -2.96882
H          8.85675        7.41976       -5.48646
H          8.70363        5.64976       -5.60293
H         10.78173        4.38333       -5.36783
H         10.90648        4.89347       -3.65591
H         13.51728        3.65934       -7.47565
H         12.08298        3.22661       -6.53934
H         15.01714        2.41813       -5.97260
H         13.79998        1.37191       -6.71151
H         12.07715        7.89593       -3.70124
H         13.77474        7.87371       -3.10564
H         11.36797        6.26001       -2.01661
H         12.42075        7.41754       -1.17222
H         12.12238        4.50487       -0.30905
H         13.18589        5.76471        0.41546
H         14.15322        3.19243       -0.97184
H         14.05593        3.44208        0.78875
H         15.70739        4.93209       -0.96844
