51

C          0.98583        2.83962       -0.91544
C          2.50914        2.83444       -0.78243
C          3.05806        1.41139       -0.50255
C          4.54673        1.38278       -0.34309
N          5.27550        1.03970       -1.42538
C          6.64930        1.00706       -1.47300
C          7.36398        1.34108       -0.35979
C          6.68334        1.71454        0.83240
C          5.24590        1.73267        0.83670
C          4.57719        2.11690        2.02720
C          5.24505        2.47321        3.19062
C          6.68708        2.43407        3.17790
C          7.35820        2.06799        2.01415
C          7.51784        2.74356        4.39284
C          7.52912        1.62110        5.46972
C          7.98291        0.27246        4.89976
C          8.40460        2.05962        6.64926
Si         4.07252        2.92589        4.65969
C          2.54385        3.74083        3.90582
C          3.56768        1.30812        5.48291
C          4.80934        4.13508        5.89944
H          0.62001        3.85408       -1.11802
H          0.50085        2.48835        0.00641
H          0.64827        2.19382       -1.73846
H          2.82226        3.50913        0.02850
H          2.97379        3.22279       -1.70240
H          2.76629        0.73906       -1.32546
H          2.58636        1.00485        0.40365
H          4.76436        0.78448       -2.26975
H          7.08843        0.70644       -2.42101
H          8.45251        1.31712       -0.39147
H          3.48751        2.13860        2.01497
H          8.44977        2.04912        2.01591
H          7.16548        3.67355        4.85941
H          8.55668        2.92393        4.07585
H          6.49820        1.49903        5.84037
H          8.99662        0.33973        4.47445
H          7.31016       -0.09186        4.11083
H          8.00823       -0.49059        5.68946
H          9.45317        2.18381        6.33824
H          8.38290        1.31069        7.45234
H          8.06812        3.01668        7.07309
H          1.94092        3.05671        3.29269
H          2.80655        4.61512        3.29398
H          1.89522        4.09076        4.72168
H          3.09353        0.63189        4.75768
H          2.83918        1.50866        6.28170
H          4.41930        0.77909        5.92983
H          5.19900        5.03987        5.41261
H          5.60154        3.70095        6.52121
H          4.00153        4.45156        6.57601
