85

C          1.13909       -0.25182       -1.28664
C          2.55180        0.16935       -0.87555
C          3.30496        0.92594       -1.97496
C          4.71603        1.36023       -1.56673
C          5.47513        2.10290       -2.67120
C          6.88306        2.54340       -2.25765
C          7.65037        3.26461       -3.37061
C          9.06966        3.67957       -2.96701
C          9.84483        4.36427       -4.09821
C         11.28552        4.72217       -3.71733
C         12.07489        5.31968       -4.90183
C         13.50863        5.63367       -4.59546
N         14.31746        4.57638       -4.23583
C         15.62717        4.64207       -3.93487
C         16.31287        3.34137       -3.65314
C         16.96661        2.73874       -4.92220
C         17.61213        1.37521       -4.65617
C         18.27130        0.77669       -5.90398
C         18.83881       -0.63003       -5.67625
C         19.51974       -1.21023       -6.91823
C         16.25612        5.91122       -3.98028
C         15.46955        7.05946       -4.35477
C         14.09195        6.87394       -4.64963
C         16.09396        8.34452       -4.43447
C         17.44439        8.43473       -4.13458
C         18.21383        7.31096       -3.75408
C         17.63670        6.06448       -3.67929
C         15.31949        9.57235       -4.85405
C         14.74799        9.51441       -6.26512
C         13.52124       10.13270       -6.54685
C         13.00028       10.09688       -7.84083
C         13.69276        9.44015       -8.86108
C         14.92072        8.81379       -8.60439
C         15.43327        8.86521       -7.29871
C         15.67630        8.09378       -9.69239
H          0.62859       -0.79220       -0.47759
H          1.15905       -0.91305       -2.16561
H          0.52056        0.62118       -1.54382
H          3.13298       -0.72359       -0.58794
H          2.50080        0.79930        0.02872
H          2.72049        1.81565       -2.27002
H          3.36330        0.29230       -2.87788
H          5.29645        0.47173       -1.26065
H          4.65434        2.00260       -0.67067
H          4.89265        2.98734       -2.98378
H          5.54322        1.45657       -3.56393
H          7.45957        1.65902       -1.93287
H          6.81576        3.20080       -1.37315
H          7.08410        4.15741       -3.68802
H          7.70287        2.60996       -4.25848
H          9.62692        2.78589       -2.63404
H          9.02303        4.35084       -2.09218
H          9.31278        5.27813       -4.41297
H          9.85846        3.70235       -4.98193
H         11.78805        3.81035       -3.34509
H         11.29442        5.43598       -2.87797
H         11.59255        6.24382       -5.24844
H         12.03854        4.61789       -5.75450
H         13.88050        3.65467       -4.18944
H         15.57672        2.62705       -3.24920
H         17.06881        3.47608       -2.86751
H         17.71581        3.44377       -5.31589
H         16.19875        2.63875       -5.70767
H         16.84747        0.67756       -4.27263
H         18.36364        1.47376       -3.85406
H         19.07901        1.44659       -6.24684
H         17.53629        0.74224       -6.72741
H         18.02374       -1.29981       -5.35429
H         19.55683       -0.60216       -4.83964
H         18.82323       -1.26781       -7.76790
H         19.89695       -2.22407       -6.73032
H         20.37333       -0.59164       -7.23247
H         13.47866        7.71890       -4.95586
H         17.93156        9.40962       -4.19590
H         19.27137        7.43834       -3.52318
H         18.23488        5.20150       -3.39141
H         15.98555       10.44461       -4.76314
H         14.49742        9.75465       -4.14230
H         12.97784       10.65030       -5.75313
H         12.04921       10.58590       -8.05626
H         13.27706        9.41696       -9.87015
H         16.39155        8.38157       -7.08969
H         15.21513        8.25217      -10.67473
H         15.70173        7.00911       -9.50715
H         16.71913        8.43618       -9.74882
