55

C          2.76401       -1.27441       -0.72809
O          2.33189        0.06007       -0.42481
C          2.95831        1.09961       -1.03920
C          4.01193        0.95869       -1.95351
C          4.56161        2.08444       -2.56879
C          4.07966        3.36453       -2.28612
C          3.04042        3.51065       -1.37070
C          2.46710        2.39559       -0.73415
C          1.35103        2.58582        0.19395
N          0.25667        3.38287       -0.15112
C         -0.64004        3.45045        0.84735
N         -0.12828        2.69236        1.83258
C          1.09986        2.14387        1.47860
C          1.89534        1.29500        2.41353
C          1.73857        1.68540        3.89288
C          2.64378        0.86091        4.82732
C          2.41848        1.21203        6.28064
C          3.11499        2.27278        6.87862
C          2.86950        2.62938        8.20654
C          1.92220        1.92720        8.95692
C          1.22561        0.86542        8.37395
C          1.47303        0.51256        7.04526
C         -1.90821        4.23645        0.86912
C         -2.88302        3.78733        1.96585
C         -4.17431        4.60714        1.97874
C         -5.07882        4.17204        3.13300
O         -4.76676        3.33345        3.94383
O         -6.28434        4.79282        3.21627
H          2.10848       -1.93130       -0.14782
H          3.80885       -1.43492       -0.42274
H          2.64776       -1.49660       -1.79933
H          4.39839       -0.02855       -2.19869
H          5.37896        1.95428       -3.27851
H          4.51778        4.24041       -2.76242
H          2.68239        4.51036       -1.11489
H          0.14489        3.82843       -1.05779
H         -0.57440        2.56087        2.73718
H          2.95007        1.36482        2.10921
H          1.61407        0.23806        2.26914
H          0.69506        1.53803        4.22417
H          1.96274        2.75619        4.02601
H          3.69691        1.03611        4.55522
H          2.44951       -0.21189        4.66844
H          3.86603        2.81841        6.30197
H          3.42461        3.45186        8.65956
H          1.73436        2.20104        9.99552
H          0.49432        0.30528        8.95789
H          0.93273       -0.32595        6.59895
H         -2.38030        4.15612       -0.12374
H         -1.65393        5.30346        1.00045
H         -2.41832        3.88067        2.95985
H         -3.13446        2.72419        1.83823
H         -4.72328        4.49704        1.02858
H         -3.95759        5.68296        2.09259
H         -6.39904        5.43829        2.49631
