53

C          2.32218        0.26649       -1.58073
C          2.71394       -0.44360       -0.51826
C          3.02800        0.19098        0.80211
N          4.53780        0.32250        1.03619
C          4.85499        1.10826        2.28535
C          6.36016        1.24165        2.43613
O          6.99848       -0.04192        2.47791
C          6.72912       -0.92172        1.41346
C          5.21711       -1.02302        1.07082
C          7.51263       -0.51325        0.09206
C          8.99683       -0.02591        0.20297
F          9.43993        0.18167       -1.06248
F          9.02284        1.16569        0.87067
F          7.45136       -1.53919       -0.79363
F          6.80455        0.54392       -0.48945
C          7.22009       -2.35769        1.88692
C          7.17771       -2.76722        3.43050
C          5.82528       -2.85322        4.25206
C          4.66707       -3.87548        3.89312
C          4.89115       -5.43957        3.79880
C          5.43576       -6.27444        5.02675
C          4.65015       -6.33010        6.39979
C          3.16124       -6.84165        6.40785
F          3.04366       -7.99413        5.72981
F          2.79048       -7.03984        7.68130
F          2.33878       -5.92429        5.86115
F          5.36752       -7.17160        7.18199
F          4.66862       -5.09223        6.96108
F          5.55127       -7.54240        4.56463
F          6.67805       -5.80913        5.32252
F          3.68224       -5.94949        3.44904
F          5.75219       -5.66080        2.77330
F          3.68803       -3.63272        4.79255
F          4.18385       -3.51363        2.65672
F          6.17956       -3.06364        5.53308
F          5.22401       -1.61539        4.18112
F          7.75781       -3.99052        3.48031
F          7.96571       -1.90138        4.11085
F          6.54150       -3.30471        1.18138
F          8.54339       -2.48848        1.57825
H          2.08204       -0.21728       -2.52718
H          2.20700        1.35230       -1.54307
H          2.77988       -1.53222       -0.58219
H          2.64180       -0.38663        1.65396
H          2.63436        1.21462        0.85876
H          4.92347        0.83139        0.22504
H          4.40665        0.56564        3.12727
H          4.38065        2.09394        2.19271
H          6.59009        1.70505        3.40301
H          6.79309        1.87327        1.64442
H          4.68943       -1.61043        1.82509
H          5.07825       -1.49662        0.09364
H          9.65174       -0.74468        0.71096
