96

C         -2.38569       -1.33926        0.04176
C         -0.93027       -1.38277        0.51394
C         -0.07878       -2.42004       -0.22675
C          1.38083       -2.45945        0.23577
C          2.24076       -3.48412       -0.51135
C          3.70772       -3.48781       -0.06980
C          4.57833       -4.50392       -0.81603
C          6.05400       -4.45847       -0.40645
C          6.93631       -5.46524       -1.15182
C          8.41799       -5.37197       -0.77272
C          9.31030       -6.37029       -1.51755
C         10.79576       -6.23703       -1.16561
C         11.69351       -7.22882       -1.91252
C         13.18121       -7.06542       -1.57874
C         14.08009       -8.05032       -2.33948
C         15.55450       -7.95105       -1.94559
O         16.39031       -8.94206       -2.51946
C         16.66232       -8.71532       -3.88388
N         17.37798       -7.44010       -4.05905
C         17.04377       -6.42543       -3.24084
N         17.60903       -5.21271       -3.37591
C         17.57482       -4.12760       -2.37965
C         18.70983       -3.16568       -2.64616
C         20.03793       -3.57614       -2.44590
C         21.09042       -2.70089       -2.71513
C         20.82495       -1.40894       -3.18180
C         19.50552       -0.99466       -3.37820
C         18.44970       -1.87220       -3.11513
N         16.13976       -6.63020       -2.26438
C         18.51462       -7.37380       -4.98733
C         19.89252       -7.49465       -4.30714
O         19.96126       -8.75937       -3.63804
C         19.95911       -8.71622       -2.19663
C         21.04986       -7.85380       -1.60450
C         22.39345       -8.04856       -1.96330
C         23.39459       -7.24522       -1.41736
C         23.06916       -6.24226       -0.49596
C         21.73803       -6.04991       -0.12048
C         20.73538       -6.85016       -0.67897
C         21.00754       -7.40717       -5.34358
H         -2.96535       -0.58279        0.58866
H         -2.88353       -2.30934        0.19022
H         -2.45110       -1.09692       -1.02963
H         -0.89907       -1.59382        1.59645
H         -0.47275       -0.38631        0.38904
H         -0.11255       -2.21046       -1.31076
H         -0.53130       -3.41983       -0.10063
H          1.41556       -2.67410        1.31846
H          1.82626       -1.45595        0.11502
H          2.18793       -3.28240       -1.59586
H          1.81249       -4.49247       -0.37205
H          3.76306       -3.68642        1.01512
H          4.12981       -2.47679       -0.21133
H          4.49751       -4.32449       -1.90271
H          4.18091       -5.52049       -0.64846
H          6.13781       -4.63429        0.68039
H          6.44452       -3.43934       -0.57635
H          6.82873       -5.30852       -2.23962
H          6.57068       -6.48878       -0.95738
H          8.52737       -5.52604        0.31527
H          8.77766       -4.34625       -0.96893
H          9.18087       -6.23447       -2.60571
H          8.97300       -7.39834       -1.29919
H         10.92782       -6.37233       -0.07776
H         11.12859       -5.20678       -1.38510
H         11.54964       -7.10793       -3.00005
H         11.38060       -8.26033       -1.67760
H         13.32816       -7.19621       -0.49229
H         13.47559       -6.02528       -1.80965
H         13.96747       -7.89493       -3.42454
H         13.77008       -9.08467       -2.12390
H         15.65947       -8.09759       -0.85894
H         15.73971       -8.71448       -4.49063
H         17.32912       -9.52043       -4.20842
H         18.23547       -5.06631       -4.15925
H         17.67748       -4.57436       -1.37621
H         16.61125       -3.59421       -2.42419
H         20.25480       -4.57575       -2.06372
H         22.11795       -3.02636       -2.54933
H         21.64784       -0.72331       -3.38563
H         19.29537        0.01323       -3.73661
H         17.41892       -1.54589       -3.26850
H         15.77792       -5.82238       -1.77054
H         18.44980       -6.45953       -5.60012
H         18.39023       -8.20858       -5.69073
H         20.01655       -6.68125       -3.57160
H         20.08773       -9.76862       -1.90463
H         18.97612       -8.38825       -1.81376
H         22.64984       -8.83690       -2.67365
H         24.43528       -7.40773       -1.70077
H         23.85459       -5.62068       -0.06505
H         21.47873       -5.27611        0.60316
H         19.69283       -6.70445       -0.38204
H         20.95724       -8.25847       -6.03650
H         21.98189       -7.43061       -4.84293
H         20.94442       -6.47750       -5.92711
