65

C          1.31606        0.12662        0.48030
C          2.83252        0.05419        0.28398
C          3.23897       -0.29553       -1.15184
C          4.75264       -0.41569       -1.35784
C          5.14391       -0.70031       -2.81182
C          6.64954       -0.89121       -3.02418
C          7.02595       -1.09381       -4.49658
C          8.52323       -1.35520       -4.71134
C          8.88490       -1.39388       -6.18551
O         10.28839       -1.73883       -6.31475
C         10.79590       -1.52475       -7.59603
N         12.24448       -1.67696       -7.48100
C         13.02720       -2.50494       -8.17532
N         12.67883       -3.16947       -9.29184
C         13.72990       -4.13758       -9.68584
C         14.97140       -3.49536       -8.98000
N         14.31190       -2.76532       -7.87028
C         16.08766       -4.41848       -8.49796
C         17.21912       -3.67249       -7.77816
C         18.39179       -4.60906       -7.41764
C         19.46035       -3.91235       -6.71666
C         20.33287       -3.31211       -6.13289
C         13.33168       -5.56681       -9.27940
C         14.07827       -6.65126      -10.06710
C         13.72961       -8.05127       -9.58945
F         14.08496       -8.23252       -8.28630
F         12.39508       -8.29774       -9.67812
F         14.37079       -8.98896      -10.32153
H          1.05532        0.38645        1.51536
H          0.83709       -0.83664        0.24961
H          0.86324        0.88498       -0.17581
H          3.25808       -0.69340        0.97485
H          3.28864        1.01845        0.56543
H          2.83637        0.47043       -1.83836
H          2.75623       -1.24449       -1.44548
H          5.14721       -1.21554       -0.70682
H          5.24381        0.51519       -1.02376
H          4.78739        0.12709       -3.45037
H          4.61180       -1.60183       -3.16300
H          6.99669       -1.75589       -2.43236
H          7.19192       -0.01506       -2.62818
H          6.72012       -0.20080       -5.06939
H          6.44414       -1.93472       -4.91137
H          8.81056       -2.31081       -4.24491
H          9.11869       -0.56893       -4.22001
H          8.71133       -0.40931       -6.65860
H          8.28098       -2.14464       -6.72747
H         10.55751       -0.50736       -7.96221
H         10.41074       -2.25526       -8.33656
H         12.63903       -1.23732       -6.65231
H         11.70905       -3.29922       -9.56043
H         13.86505       -4.08250      -10.77509
H         15.40321       -2.74901       -9.67118
H         14.84222       -2.19078       -7.22390
H         16.50668       -4.92201       -9.38334
H         15.67937       -5.20173       -7.84064
H         16.85551       -3.21436       -6.84361
H         17.59870       -2.85255       -8.40832
H         18.79425       -5.06816       -8.33671
H         18.02577       -5.44161       -6.79288
H         21.11360       -2.79817       -5.61200
H         12.25410       -5.68352       -9.47232
H         13.46562       -5.70654       -8.19643
H         15.16810       -6.55749       -9.97941
H         13.82940       -6.59967      -11.13699
