80

F          1.69479       -0.13237        1.16109
C          3.03389       -0.17475        0.77728
C          3.15208       -0.91126       -0.55328
C          4.61826       -1.01899       -1.00194
C          4.86253       -1.54918       -2.41710
N          4.31856       -2.98564       -2.49415
C          4.59131       -3.68860       -3.80387
C          4.06390       -2.82028       -4.93784
N          4.66981       -1.50263       -4.82032
C          4.28081       -0.76917       -3.61614
C          4.81489        0.67575       -3.68177
C          3.97924        1.72790       -2.93929
C          4.59683        3.12758       -3.00773
C          3.78405        4.16263       -2.21165
N          4.40177        5.47465       -2.18492
C          4.25950        6.44707       -3.15421
C          5.09605        7.49973       -2.83395
C          5.77654        7.15180       -1.63328
C          5.33406        5.89738       -1.25835
C          4.40900       -3.44013       -6.29130
O          3.90864       -2.57042       -7.28056
C          4.23042       -3.01508       -8.61282
C          3.67612       -2.03388       -9.62957
C          3.99177       -2.47864      -11.06350
C          3.45297       -1.53303      -12.14185
C          3.78914       -2.00369      -13.56067
C          3.25656       -1.09003      -14.66854
C          3.61822       -1.57768      -16.07554
C          3.06804       -0.69592      -17.20052
C          3.44587       -1.18739      -18.60274
C          2.86360       -0.32631      -19.72640
H          3.59938       -0.68035        1.57708
H          3.39395        0.86392        0.69040
H          2.54553       -0.37564       -1.29789
H          2.69436       -1.90713       -0.41986
H          5.18141       -1.64928       -0.29156
H          5.10364       -0.03335       -0.94807
H          5.94353       -1.65599       -2.59301
H          3.29911       -2.94517       -2.34010
H          4.70645       -3.53012       -1.71209
H          4.10142       -4.67040       -3.75980
H          5.67958       -3.81533       -3.87474
H          2.95114       -2.77924       -4.86087
H          4.46865       -0.96756       -5.66718
H          3.17123       -0.73270       -3.50561
H          4.85727        0.95513       -4.74645
H          5.86205        0.69917       -3.33665
H          3.85762        1.45701       -1.87832
H          2.96015        1.74396       -3.36218
H          4.67889        3.46016       -4.05447
H          5.62351        3.10527       -2.60765
H          3.65926        3.82502       -1.17031
H          2.77264        4.26280       -2.63502
H          3.56716        6.31188       -3.97912
H          5.19270        8.42517       -3.39211
H          6.49493        7.75877       -1.09205
H          5.58787        5.27756       -0.40387
H          3.95277       -4.44772       -6.37165
H          5.50887       -3.55219       -6.38138
H          3.80088       -4.02336       -8.76845
H          5.32991       -3.10154       -8.70821
H          4.10370       -1.03585       -9.43998
H          2.58667       -1.94662       -9.48996
H          3.57788       -3.48815      -11.23147
H          5.08478       -2.57654      -11.18360
H          3.86310       -0.52058      -11.98225
H          2.35845       -1.43823      -12.03394
H          3.38859       -3.02221      -13.70826
H          4.88512       -2.09530      -13.66116
H          3.64819       -0.06790      -14.52266
H          2.15888       -1.00832      -14.57991
H          3.24649       -2.60910      -16.20863
H          4.71715       -1.64115      -16.16587
H          3.42986        0.33906      -17.06723
H          1.96790       -0.64282      -17.11781
H          3.10690       -2.23026      -18.72415
H          4.54524       -1.21650      -18.69142
H          1.76396       -0.31466      -19.69137
H          3.15952       -0.70083      -20.71594
H          3.20650        0.71640      -19.65017
