39

C          2.67330        4.76191        0.43750
C          2.30220        3.49397       -0.33576
C          2.94298        2.19252        0.18207
C          2.64042        1.89399        1.69006
C          1.20405        1.67268        1.97403
N          0.29055        2.65117        2.15331
N         -0.88911        2.09160        2.33572
N         -0.74713        0.78934        2.28736
N          0.55686        0.48044        2.04391
C          1.08280       -0.88698        2.07175
C          1.36444       -1.35060        3.51023
C          1.82636       -2.82791        3.48667
F          0.80816       -3.62067        3.06671
F          2.87783       -3.01680        2.66315
F          2.18357       -3.21264        4.72921
O          2.34646       -0.49068        4.03363
C         -1.89066       -0.14545        2.30642
C         -2.35299       -0.52617        0.90224
C          2.59751        0.99741       -0.71359
H          2.28204        5.65080       -0.07343
H          3.76401        4.88202        0.51429
H          2.25520        4.77203        1.45383
H          2.61688        3.60439       -1.38525
H          1.20451        3.38531       -0.36925
H          4.03768        2.32802        0.16338
H          2.94900        2.75322        2.30112
H          3.22683        1.03024        2.02749
H          2.01477       -0.87489        1.49569
H          0.37813       -1.55454        1.56345
H          0.43580       -1.33682        4.11228
H          2.51866       -0.71620        4.96391
H         -2.66351        0.40715        2.85438
H         -1.60549       -1.01614        2.91147
H         -2.64417        0.36535        0.33367
H         -3.22998       -1.17971        0.99080
H         -1.58460       -1.07152        0.33893
H          1.51273        0.80205       -0.74343
H          3.11156        0.07790       -0.39576
H          2.90600        1.19522       -1.74833
