93

C          6.98529        6.18034        8.96280
C          7.68161        5.45368        7.80908
C          8.17590        4.05309        8.18687
C          8.88382        3.31519        7.04577
C          9.38988        1.92398        7.44092
C         10.11328        1.18363        6.31085
C         10.63695       -0.19562        6.72445
C         11.38404       -0.93385        5.60796
C         11.91708       -2.30239        6.04316
C         12.68380       -3.04657        4.94270
C         13.18732       -4.41776        5.41218
C         13.96166       -5.16417        4.34131
O         14.29802       -6.47403        4.87996
C         15.02644       -7.27469        4.00115
N         15.06537       -8.61289        4.61539
C         14.44624       -9.76625        4.27165
C         13.66685      -10.02366        3.03948
C         14.57154      -10.44058        1.85248
C         13.74519      -10.80187        0.61468
C         14.60565      -11.24882       -0.57291
C         13.76995      -11.61550       -1.80201
N         14.70439      -10.68391        5.22618
N         15.44974      -10.11574        6.15298
N         15.66549       -8.86904        5.80541
C         16.52507       -7.96800        6.56696
C         17.93417       -7.92352        5.93561
O         18.11914       -8.09879        4.74794
O         18.82665       -7.66965        6.88112
C         20.24841       -7.58253        6.47539
C         20.64878       -6.15678        6.14030
C         22.16476       -6.05880        5.91273
C         22.63541       -4.64282        5.56170
C         24.15976       -4.53038        5.45316
C         24.64945       -3.12745        5.08118
C         26.17709       -3.00574        5.03687
C         26.66401       -1.60361        4.66415
H          6.64424        7.18074        8.66326
H          7.66094        6.30378        9.82238
H          6.10518        5.62118        9.31401
H          8.53553        6.05627        7.45560
H          6.99216        5.37686        6.95128
H          7.32078        3.44835        8.53759
H          8.86121        4.13127        9.04959
H          9.73338        3.92418        6.68937
H          8.19679        3.22479        6.18596
H          8.53991        1.31272        7.79226
H         10.06971        2.01800        8.30620
H         10.95596        1.80051        5.95204
H          9.43177        1.07370        5.44911
H          9.79338       -0.81774        7.07193
H         11.30622       -0.08337        7.59568
H         12.22327       -0.30910        5.25528
H         10.71457       -1.06004        4.73922
H         11.07600       -2.92978        6.38619
H         12.57563       -2.17483        6.92000
H         13.53504       -2.42948        4.60747
H         12.03108       -3.17378        4.06213
H         12.33401       -5.04108        5.72383
H         13.83136       -4.29619        6.29815
H         14.89033       -4.63347        4.06463
H         13.35641       -5.30440        3.42715
H         16.06917       -6.94540        3.84477
H         14.53908       -7.40846        3.01893
H         13.06485       -9.14075        2.77631
H         12.96702      -10.83651        3.27860
H         15.18636      -11.30023        2.16188
H         15.27357       -9.62266        1.61781
H         13.12871       -9.93571        0.31738
H         13.03599      -11.60586        0.87516
H         15.21798      -12.11403       -0.26994
H         15.31727      -10.44743       -0.83236
H         13.07347      -12.43722       -1.58112
H         14.40921      -11.93727       -2.63441
H         13.17430      -10.75979       -2.15227
H         16.55013       -8.36825        7.58601
H         16.06734       -6.96900        6.57822
H         20.39904       -8.26821        5.63179
H         20.77849       -7.95860        7.35886
H         20.35260       -5.49354        6.96852
H         20.10860       -5.82123        5.24062
H         22.46428       -6.75292        5.10925
H         22.68879       -6.39974        6.82193
H         22.27211       -3.93650        6.32837
H         22.17122       -4.32653        4.61144
H         24.52876       -5.25600        4.70721
H         24.61207       -4.83065        6.41460
H         24.24843       -2.39647        5.80562
H         24.23085       -2.84031        4.10041
H         26.57825       -3.73912        4.31706
H         26.59041       -3.29128        6.01890
H         26.29806       -1.30316        3.67115
H         27.76104       -1.55226        4.64231
H         26.31161       -0.85285        5.38696
