56

C          8.09084        2.34385       -0.38025
C          7.86617        1.15327       -1.29255
O          6.42532        0.99611       -1.55981
C          5.96768        1.42986       -2.73525
O          6.62703        1.90636       -3.64111
C          4.44573        1.19772       -2.82048
N          3.74956        2.54758       -2.97108
C          3.97256        3.22525       -4.31855
C          3.93547        4.75435       -4.19841
P          5.17151        5.36579       -3.00537
O          5.28752        4.39972       -1.85960
O          6.51838        5.59204       -3.82137
C          7.83414        5.10154       -3.37470
C          8.83565        5.43424       -4.45684
O          4.60085        6.80827       -2.68161
C          5.39608        7.85661       -2.02123
C          5.52198        7.62925       -0.52726
C          2.28071        2.49804       -2.63423
C          2.00798        2.11287       -1.18878
O          2.79658        2.97412       -0.39132
C          2.71905        2.72940        1.00194
C          3.83071        3.53363        1.67254
F          3.72105        4.85803        1.42123
F          3.76882        3.35098        3.01266
F          5.05587        3.13470        1.25148
C          4.10358        0.20115       -3.92373
H          9.16812        2.45498       -0.19406
H          7.58822        2.20750        0.58504
H          7.71621        3.26982       -0.83455
H          8.15324        0.20690       -0.81882
H          8.38180        1.25514       -2.25520
H          4.12514        0.82039       -1.84383
H          4.24364        3.20782       -2.27307
H          3.20316        2.86277       -5.01190
H          4.95613        2.89513       -4.67246
H          2.95355        5.13458       -3.88230
H          4.13919        5.18961       -5.18611
H          7.75504        4.02037       -3.20690
H          8.07849        5.59882       -2.42464
H          8.58743        4.92301       -5.39580
H          9.83380        5.10198       -4.14006
H          8.87898        6.51491       -4.64418
H          4.84516        8.77675       -2.24903
H          6.37386        7.90819       -2.52326
H          4.53484        7.54922       -0.05405
H          6.04834        8.48428       -0.07997
H          6.08827        6.71811       -0.29384
H          1.77907        1.80837       -3.32532
H          1.89523        3.50901       -2.81486
H          2.24504        1.05100       -0.98352
H          0.92513        2.24419       -1.00174
H          2.88207        1.66373        1.24142
H          1.75055        3.05013        1.42341
H          4.49760        0.51512       -4.89765
H          3.02196        0.03366       -4.00662
H          4.56282       -0.76439       -3.67642
