107

C          0.64581        0.55471       -0.84463
C          2.05557        0.75548       -0.28630
C          2.63135       -0.52749        0.33544
C          4.06130       -0.28419        0.81417
N          4.64305       -1.24489        1.84704
C          3.85139       -1.41838        3.15871
C          3.28676       -0.10967        3.71145
C          2.31471       -0.41090        4.86759
C          1.43754        0.78510        5.24090
S          0.21121        0.33825        6.49218
C          1.14772        0.54415        8.02604
S          2.66155        1.24771        8.06708
N          0.47090        0.09478        9.10508
C         -0.81339       -0.61699        9.01573
C         -0.64858       -2.13822        8.90322
C         -1.99188       -2.86107        8.77127
C         -1.85121       -4.38513        8.69368
C         -3.18476       -5.11440        8.50054
C         -3.04747       -6.63919        8.44586
C         -4.37601       -7.36915        8.21708
C         -4.22983       -8.89184        8.16429
C          0.99772        0.28599       10.46649
C          0.38489        1.51093       11.15390
C          0.89215        1.70127       12.58725
C          0.08642        2.74994       13.36180
C          0.63156        3.04756       14.76252
C         -0.29801        3.93922       15.59255
C          0.28397        4.35860       16.94685
C         -0.69824        5.16549       17.80004
C          4.81220       -2.11118        4.15588
N          5.47485       -3.31288        3.68468
C          6.08754       -3.15668        2.38160
C          5.12915       -2.60995        1.30069
C          3.97721       -3.55236        0.93638
C          4.42600       -4.90862        0.36872
C          3.19085       -5.73510       -0.01370
C          3.52426       -7.15732       -0.46836
S          1.98925       -8.04272       -0.81686
O          1.27879       -8.26438        0.42744
O          1.35680       -7.40920       -1.94614
O          2.56648       -9.47123       -1.32549
H          0.25835        1.48804       -1.27197
H         -0.05470        0.23202       -0.06096
H          0.63240       -0.20426       -1.63964
H          2.04710        1.55262        0.47607
H          2.72620        1.10705       -1.08763
H          2.60272       -1.33228       -0.41189
H          1.98509       -0.84790        1.16706
H          4.13645        0.70823        1.27842
H          4.76982       -0.30301       -0.02594
H          5.51788       -0.78077        2.13847
H          3.01755       -2.08524        2.90590
H          2.73517        0.43339        2.93040
H          4.09747        0.55512        4.05421
H          2.86715       -0.71393        5.76858
H          1.66302       -1.25405        4.58389
H          0.84501        1.14305        4.38499
H          2.03706        1.61373        5.65010
H         -1.39323       -0.22406        8.16796
H         -1.38913       -0.36077        9.91722
H         -0.10718       -2.51127        9.78822
H         -0.01516       -2.36340        8.03032
H         -2.51544       -2.49493        7.87085
H         -2.63960       -2.59862        9.62598
H         -1.36211       -4.75251        9.61261
H         -1.16997       -4.64647        7.86445
H         -3.66335       -4.75698        7.57170
H         -3.87344       -4.83934        9.31830
H         -2.59206       -6.99852        9.38553
H         -2.33910       -6.91477        7.64408
H         -4.82948       -7.00918        7.27796
H         -5.08350       -7.09377        9.01736
H         -3.55251       -9.20100        7.35391
H         -5.19696       -9.38393        7.99327
H         -3.81924       -9.28688        9.10554
H          2.08799        0.38309       10.39098
H          0.77162       -0.62874       11.03697
H         -0.71383        1.41036       11.16876
H          0.60997        2.40427       10.55028
H          1.95810        1.98447       12.56580
H          0.84425        0.74023       13.12917
H         -0.95927        2.40413       13.44334
H          0.04782        3.68780       12.78082
H          1.62290        3.52540       14.67347
H          0.80085        2.09901       15.30179
H         -1.25307        3.40855       15.75524
H         -0.55386        4.84404       15.01278
H          1.20144        4.94765       16.77950
H          0.60019        3.45904       17.50180
H         -1.02955        6.07534       17.27746
H         -0.24750        5.47505       18.75276
H         -1.59740        4.57614       18.03482
H          4.25605       -2.34357        5.07170
H          5.58587       -1.37192        4.44312
H          4.88584       -4.14078        3.75100
H          6.50960       -4.11262        2.04872
H          6.94409       -2.46219        2.47752
H          5.70411       -2.35476        0.39600
H          3.32503       -3.07194        0.19641
H          3.34691       -3.74830        1.81615
H          5.02004       -5.46185        1.11344
H          5.07768       -4.76414       -0.50867
H          2.63516       -5.22321       -0.81442
H          2.51211       -5.79213        0.85260
H          4.04833       -7.73400        0.30655
H          4.11208       -7.18086       -1.39653
H          2.33762      -10.13489       -0.64641
