86

C          1.42560       -0.74267       -1.00223
C          2.84468       -0.37581       -0.56062
C          3.43839       -1.36526        0.44797
C          4.85687       -1.00959        0.90455
C          5.44642       -2.01354        1.90019
C          6.86787       -1.67258        2.35908
C          7.45140       -2.69686        3.33737
C          8.87966       -2.37979        3.79158
C          9.45002       -3.41600        4.76528
C         10.89931       -3.14416        5.18018
C         11.45770       -4.18251        6.15905
C         12.93417       -3.96365        6.50454
C         13.49371       -4.99999        7.48645
C         14.98937       -4.81211        7.76104
C         15.55994       -5.85233        8.73038
C         17.09080       -5.67146        8.92030
C         17.64429       -6.63741        9.91492
C         18.10129       -7.89543        9.52460
C         18.58172       -8.77925       10.48021
N         18.60075       -8.40571       11.76941
N         18.16398       -7.22901       12.20563
C         17.69225       -6.35834       11.31625
C         17.27904       -5.03979       11.89946
C         18.32470       -3.95988       11.57839
O         19.37195       -4.19157       11.00559
O         17.90009       -2.77419       12.02051
C         18.76825       -1.61312       11.75602
C         18.47526       -0.99907       10.39501
C         17.02549       -0.53487       10.20388
C         16.78457        0.11887        8.84117
C         19.10053       -9.30631       12.83992
C         17.98574       -9.82763       13.74958
C         16.95172      -10.68823       13.03681
F         17.54068      -11.65975       12.28375
F         16.12208      -11.28204       13.91085
F         16.18620       -9.94363       12.18089
H          1.02978       -0.02208       -1.73134
H          0.73401       -0.76222       -0.14631
H          1.39758       -1.73809       -1.47071
H          2.84534        0.63636       -0.12126
H          3.50359       -0.32036       -1.44406
H          3.44094       -2.37704        0.00472
H          2.77595       -1.42604        1.33000
H          4.85373       -0.00255        1.35769
H          5.51756       -0.94059        0.02210
H          5.44366       -3.01996        1.44553
H          4.78606       -2.08144        2.78294
H          6.87219       -0.67307        2.82811
H          7.52721       -1.59422        1.47666
H          7.43511       -3.69628        2.86798
H          6.79485       -2.77074        4.22213
H          8.90360       -1.38118        4.26215
H          9.53613       -2.31143        2.90609
H          9.38812       -4.41806        4.30528
H          8.81278       -3.45953        5.66609
H         10.97193       -2.13881        5.63091
H         11.53530       -3.11654        4.27768
H         11.33278       -5.19172        5.72852
H         10.85704       -4.17342        7.08551
H         13.06865       -2.95203        6.92576
H         13.53045       -3.98599        5.57553
H         13.32198       -6.01359        7.08428
H         12.93239       -4.94993        8.43549
H         15.16951       -3.80043        8.16495
H         15.54419       -4.86235        6.80841
H         15.36284       -6.87019        8.35659
H         15.04938       -5.78015        9.70512
H         17.30363       -4.63896        9.22698
H         17.59117       -5.82454        7.95308
H         18.09904       -8.19623        8.47702
H         18.95183       -9.77743       10.25226
H         17.19126       -5.13270       12.98966
H         16.30048       -4.71311       11.52102
H         19.81217       -1.93922       11.84031
H         18.52427       -0.92632       12.57598
H         18.76064       -1.71040        9.60289
H         19.16032       -0.14066       10.28784
H         16.76275        0.17315       11.00739
H         16.34620       -1.39420       10.32770
H         17.41493        1.00965        8.70675
H         15.73874        0.43406        8.73101
H         17.01233       -0.57288        8.01627
H         19.81347       -8.71811       13.42945
H         19.63553      -10.12694       12.34820
H         17.46192       -8.99833       14.24337
H         18.44938      -10.44348       14.53230
