55

C          4.60089        1.16246       -0.50083
C          4.33618        0.93522        0.97253
O          4.77437       -0.39845        1.31472
C          4.62229       -0.69663        2.68540
C          5.11713       -2.12214        2.91005
N          6.53626       -2.26150        2.53639
N          7.51209       -2.00533        3.37617
N          8.65669       -2.06275        2.72451
C          8.38946       -2.35251        1.43617
N          7.04817       -2.47690        1.29289
C          6.26452       -2.86591        0.09853
C          6.54271       -4.31704       -0.32803
C          6.28514       -5.39960        0.70383
Br         4.45149       -5.45987        1.39040
Br         5.51378       -4.58631       -1.97447
C          9.41305       -2.50889        0.37068
C         10.37928       -1.30851        0.27044
C         11.51199       -1.60918       -0.71631
C         12.43603       -0.41308       -0.96577
C         13.62518       -0.77904       -1.86115
C         14.48137        0.43688       -2.20715
O         15.67657        0.05384       -2.92520
C         15.53614       -0.10418       -4.27846
O         14.48540        0.06285       -4.87060
C         16.83266       -0.50036       -4.87953
C         16.94310       -0.72451       -6.19342
H          4.27488        2.17123       -0.78632
H          4.04950        0.44093       -1.11828
H          5.67287        1.07938       -0.72731
H          3.26059        1.03017        1.20590
H          4.88435        1.66443        1.59632
H          3.56250       -0.66044        3.00507
H          5.19290        0.00845        3.32004
H          4.54508       -2.86727        2.34232
H          5.08163       -2.38952        3.97269
H          6.53850       -2.16829       -0.70190
H          5.20584       -2.70101        0.32092
H          7.58744       -4.42752       -0.65073
H          6.93163       -5.26376        1.58183
H          6.47577       -6.38811        0.27542
H          8.93009       -2.68054       -0.60148
H          9.99065       -3.41983        0.60447
H         10.78789       -1.08506        1.26694
H          9.81422       -0.41815       -0.05007
H         11.08766       -1.94261       -1.67932
H         12.10321       -2.45854       -0.33249
H         12.80207       -0.02136       -0.00127
H         11.85623        0.40277       -1.43035
H         13.26383       -1.23444       -2.79597
H         14.25687       -1.52804       -1.35727
H         14.85325        0.93437       -1.30099
H         13.91297        1.15691       -2.81373
H         17.67957       -0.59896       -4.19969
H         16.07721       -0.61557       -6.84806
H         17.89185       -1.01605       -6.64269
