86

C          2.25151        0.19949        1.68746
O          2.09594       -0.34984        0.36671
C          3.19678       -0.83736       -0.25893
C          4.49473       -0.88130        0.27150
C          5.54240       -1.41036       -0.48627
C          5.33035       -1.90204       -1.77622
C          4.04465       -1.86478       -2.31800
C          2.99947       -1.33999       -1.56222
N          1.65891       -1.29331       -2.12881
C          1.28240       -0.22750       -2.87326
C          0.01919       -0.18294       -3.43404
C         -0.88966       -1.23298       -3.24235
C         -0.48010       -2.33821       -2.44361
C          0.79941       -2.32279       -1.90492
C         -1.41612       -3.48927       -2.20685
C         -0.97218       -4.59718       -1.25724
O         -2.05085       -5.50592       -1.23527
C         -1.88713       -6.59750       -0.32950
C         -3.12005       -7.47567       -0.49046
O         -3.01109       -8.50372        0.48056
C         -4.02864       -9.43201        0.54228
C         -3.90308      -10.40644        1.54139
C         -4.87845      -11.38347        1.68078
C         -6.00553      -11.44127        0.83670
C         -6.11036      -10.44975       -0.14301
C         -5.14041       -9.45105       -0.30197
C         -7.04109      -12.55969        1.00240
C         -6.42683      -13.97311        0.71901
C         -5.64451      -14.35503       -0.57639
C         -6.39940      -14.02887       -1.87898
C         -4.24642      -13.70524       -0.64023
C         -5.45087      -15.88599       -0.50414
C         -7.51688      -12.57796        2.47809
C         -8.30470      -12.31731        0.15183
C         -2.26467       -1.21971       -3.85268
C         -2.64731        0.00295       -4.68471
C         -4.06948       -0.11108       -5.23774
C         -4.47143        1.14072       -6.01537
O         -3.76971        2.11626       -6.13010
O         -5.70456        1.11201       -6.59168
H          1.25234        0.53433        1.98109
H          2.94005        1.05707        1.67888
H          2.60720       -0.56480        2.39393
H          4.69022       -0.50278        1.27301
H          6.54320       -1.43512       -0.05491
H          6.15543       -2.30738       -2.35976
H          3.84464       -2.23839       -3.32308
H          2.02664        0.55698       -2.99271
H         -0.24858        0.68734       -4.03074
H          1.19859       -3.12268       -1.28534
H         -1.66385       -3.95453       -3.17655
H         -2.37484       -3.09785       -1.82806
H         -0.77159       -4.19643       -0.24166
H         -0.04593       -5.09569       -1.61179
H         -1.81228       -6.23369        0.71182
H         -0.97053       -7.16916       -0.56412
H         -3.15710       -7.89150       -1.51315
H         -4.03003       -6.86977       -0.33029
H         -3.03316      -10.38049        2.19821
H         -4.74362      -12.13453        2.45994
H         -6.96307      -10.43969       -0.82059
H         -5.27259       -8.70531       -1.08485
H         -7.26745      -14.68254        0.81137
H         -5.75493      -14.21208        1.56109
H         -6.45548      -12.94694       -2.05995
H         -7.42198      -14.43316       -1.87309
H         -5.87288      -14.47348       -2.73687
H         -4.29515      -12.62093       -0.79647
H         -3.67213      -14.13739       -1.47360
H         -3.67813      -13.88563        0.28414
H         -6.41690      -16.41223       -0.50759
H         -4.91332      -16.17806        0.41053
H         -4.86740      -16.24622       -1.36411
H         -6.69673      -12.78710        3.17739
H         -8.28092      -13.35556        2.62292
H         -7.95809      -11.60970        2.75330
H         -8.10855      -12.25554       -0.92369
H         -8.80976      -11.38993        0.45881
H         -9.01186      -13.14436        0.30468
H         -2.99497       -1.35742       -3.03405
H         -2.36858       -2.13787       -4.46021
H         -1.95229        0.13594       -5.52749
H         -2.58109        0.92161       -4.08279
H         -4.79739       -0.25919       -4.42103
H         -4.16671       -0.98844       -5.89988
H         -6.15159        0.26523       -6.41528
