50

C          0.83843       -0.02399        0.06601
C          2.36674       -0.05371        0.00586
C          2.98878       -1.01530        1.02319
C          4.51748       -1.07231        0.95378
C          5.13981       -1.99418        2.00674
C          6.66600       -2.08369        1.90258
C          7.28841       -2.95916        2.99589
C          8.80623       -3.06476        2.85296
N          9.38249       -3.82804        3.97114
C         10.61814       -4.34546        4.00919
N         10.99071       -5.17047        5.02417
C         12.41993       -5.32275        5.40242
C         13.02694       -6.68148        5.04388
C         13.15732       -6.95706        3.54151
C         13.81954       -8.30469        3.24323
C          9.99695       -5.81559        5.80386
C         10.17623       -6.34771        7.01751
N         11.49421       -4.04058        3.03403
H          0.42172        0.68021       -0.66652
H          0.48445        0.28298        1.06120
H          0.41228       -1.01560       -0.14618
H          2.76413        0.96067        0.17819
H          2.69175       -0.33862       -1.00894
H          2.57853       -2.02823        0.86528
H          2.67862       -0.71775        2.04030
H          4.92706       -0.05429        1.07548
H          4.82453       -1.40560       -0.05291
H          4.70872       -3.00570        1.91056
H          4.86174       -1.63754        3.01362
H          7.09698       -1.06941        1.95911
H          6.94067       -2.48136        0.91057
H          6.85017       -3.96981        2.96578
H          7.04657       -2.53197        3.98475
H          9.24981       -2.05373        2.82363
H          9.06199       -3.57929        1.91324
H          8.85362       -3.83580        4.83907
H         12.47643       -5.14774        6.48590
H         12.97510       -4.50048        4.93247
H         12.44069       -7.48334        5.51846
H         14.02449       -6.71563        5.51021
H         13.76059       -6.15506        3.07342
H         12.15952       -6.93762        3.06905
H         14.82985       -8.35183        3.67251
H         13.90568       -8.47619        2.16292
H         13.23510       -9.13241        3.66849
H          9.03718       -5.91217        5.29404
H         11.11348       -6.31472        7.56911
H          9.34226       -6.86050        7.49095
H         11.27450       -3.32260        2.35563
H         12.28763       -4.64456        2.84936
