52

N          0.19378       -0.61879        0.86400
C          1.44758        0.13238        0.71491
C          2.49663       -0.84435        0.09390
C          2.68087       -2.17992        0.84457
N          3.07203       -3.25996       -0.08922
C          3.83000       -4.22118        0.37908
S          4.41270       -4.01946        1.93928
C          3.69944       -2.24150        2.04686
C          4.90419       -1.29222        1.92332
C          5.78886       -1.40852        0.67423
C          6.90268       -0.34249        0.65808
C          7.68253       -0.36682       -0.63653
C          8.73397       -1.27527       -0.83048
C          9.41541       -1.32928       -2.04874
C          9.05612       -0.47229       -3.09293
C          8.01532        0.44200       -2.90975
C          7.33549        0.49124       -1.69045
C          2.97066       -2.16880        3.39228
C          3.36746       -1.27337        4.39770
C          2.67811       -1.21650        5.61221
C          1.58861       -2.05610        5.84768
C          1.19003       -2.95979        4.85872
C          1.87513       -3.01573        3.64637
N          1.26863        1.32830       -0.10987
N          1.93780        0.63073        1.99269
H         -0.21297       -0.85024       -0.04682
H         -0.49215       -0.03088        1.34167
H          3.43905       -0.30221       -0.03252
H          2.13647       -1.09244       -0.91907
H          1.67707       -2.44485        1.22286
H          2.65564       -3.31802       -1.01782
H          4.05422       -5.10453       -0.22165
H          5.53994       -1.43077        2.81179
H          4.49534       -0.26934        1.99676
H          5.20379       -1.30190       -0.25153
H          6.25787       -2.40348        0.62415
H          7.57685       -0.50548        1.51410
H          6.45331        0.65385        0.79741
H          9.03214       -1.93914       -0.01507
H         10.23702       -2.03472       -2.18027
H          9.59356       -0.50778       -4.04106
H          7.73954        1.12541       -3.71394
H          6.53258        1.21937       -1.54802
H          4.20156       -0.59290        4.23948
H          2.99965       -0.50820        6.37605
H          1.05341       -2.00914        6.79617
H          0.34597       -3.62768        5.03161
H          1.55087       -3.74384        2.90075
H          0.92468        1.10512       -1.04352
H          2.14197        1.85029       -0.20528
H          1.78695       -0.05115        2.73724
H          1.41472        1.47527        2.23203
