67

C          2.18745        8.87326       -1.54046
C          2.95054        8.27652       -0.35586
C          3.88352        7.12748       -0.76485
C          4.62407        6.56222        0.43699
O          5.44432        5.39800        0.07818
C          6.70870        5.64070       -0.29498
O          7.23778        6.72873       -0.38692
C          7.41823        4.30487       -0.57814
C          8.85007        4.51670       -0.96843
C          9.32905        4.27721       -2.26979
C         10.66518        4.52231       -2.56964
C         11.30723        4.27165       -3.90876
C         10.40439        3.63331       -4.96111
O          9.32822        4.50980       -5.24111
Si         8.19381        4.25151       -6.47680
C          7.26901        2.65279       -6.11998
C          7.06729        5.73969       -6.36694
C          9.08338        4.15260       -8.12569
C         11.44268        5.03941       -1.52196
N         10.89681        5.24629       -0.31376
N          9.63601        4.97709        0.00773
C         11.73146        5.67905        0.81086
C         12.72459        4.53451        1.17332
O         13.03507        3.72634        0.29361
N         13.22184        4.52334        2.42965
C         12.87863        5.48086        3.49358
C         13.78148        6.71568        3.51765
C         14.22514        3.48783        2.75693
C         13.59314        2.22090        3.33209
H          1.52727        9.68843       -1.21635
H          1.56275        8.11637       -2.03667
H          2.87631        9.28298       -2.29371
H          2.23345        7.91313        0.39908
H          3.54000        9.06616        0.13886
H          4.61310        7.48744       -1.50773
H          3.30114        6.32307       -1.24262
H          3.92972        6.16442        1.18818
H          5.27814        7.31256        0.90088
H          6.86874        3.76460       -1.35987
H          7.35990        3.69650        0.33597
H          8.64963        3.92160       -3.04322
H         12.19704        3.63844       -3.75393
H         11.68061        5.23457       -4.29722
H         10.04000        2.65038       -4.60060
H         11.01218        3.43555       -5.86142
H          6.74995        2.69368       -5.15145
H          7.93822        1.78054       -6.11493
H          6.50795        2.47073       -6.89237
H          6.56473        5.79162       -5.39107
H          6.28903        5.68830       -7.14160
H          7.62729        6.67306       -6.51410
H          9.75441        3.28404       -8.18522
H          9.67665        5.05882       -8.31075
H          8.35598        4.05652       -8.94466
H         12.49356        5.29655       -1.62986
H         11.04086        5.95294        1.61143
H         12.30454        6.56623        0.50831
H         12.95644        4.93386        4.44332
H         11.82273        5.76889        3.40721
H         14.83760        6.43513        3.62410
H         13.51716        7.35865        4.36772
H         13.68163        7.31197        2.60044
H         14.93083        3.93621        3.47033
H         14.77459        3.25998        1.83586
H         13.02463        2.42865        4.24936
H         14.37755        1.49468        3.58265
H         12.91989        1.75642        2.60046
