58

C          1.62550        0.38047        0.48023
C          3.08154        0.14566        0.83320
O          3.96896        0.41636       -0.30299
P          4.30166       -0.72380       -1.38793
O          4.09450       -2.11522       -0.92057
O          3.58684       -0.30394       -2.75491
C          2.25233       -0.80457       -3.10341
C          2.21975       -1.09725       -4.58826
C          6.02872       -0.30914       -1.81499
C          6.96762       -0.65555       -0.65434
C          8.46807       -0.50364       -0.93257
S          9.02635       -1.71373       -2.24350
C          9.25966       -0.46752       -3.34995
N          9.12246        0.75224       -2.89292
C          8.92004        0.89804       -1.43369
C         10.20723        1.44243       -0.79405
C          9.99414        1.79339        0.68415
C         11.10469        2.63282        1.33420
C         12.29816        1.88059        2.04405
C         13.26972        0.93058        1.24065
C         14.15965        1.44975        0.04359
C         15.20642        2.62040        0.22915
C         16.35696        2.44440        1.28961
F         16.99675        1.27677        1.10794
F         17.22811        3.45239        1.13111
F         15.86717        2.48879        2.53982
F         15.79963        2.75541       -0.98554
F         14.53738        3.76395        0.51279
F         14.82840        0.36024       -0.40801
F         13.31312        1.85814       -0.95176
F         14.09460        0.36232        2.14714
F         12.48995       -0.06867        0.70244
F         13.04959        2.80600        2.68031
F         11.72352        1.06852        2.98340
F         11.61775        3.53863        0.44539
F         10.52747        3.35146        2.34874
H          1.01158        0.29692        1.38804
H          1.25847       -0.36638       -0.23639
H          1.47668        1.38340        0.05850
H          3.25634       -0.88557        1.16993
H          3.42249        0.84146        1.61037
H          1.53302       -0.02013       -2.82654
H          2.04942       -1.70742       -2.50966
H          2.45989       -0.20030       -5.17467
H          1.21305       -1.43192       -4.87475
H          2.93059       -1.89264       -4.84842
H          6.06653        0.75450       -2.09409
H          6.25678       -0.90446       -2.71236
H          6.76868       -1.68420       -0.31492
H          6.74747       -0.00804        0.21165
H          9.03943       -0.78357       -0.03761
H          9.51528       -0.65609       -4.39442
H          9.26409        1.56672       -3.49057
H          8.09452        1.61208       -1.28242
H         10.50528        2.35234       -1.33541
H         11.01473        0.71122       -0.92798
H          9.83840        0.90262        1.30832
H          9.09248        2.41662        0.78786
