85

C          0.85403        0.45481       -0.44424
C          2.35164        0.32265       -0.15712
C          2.87229       -1.11456       -0.27359
C          4.37407       -1.24374       -0.00212
C          4.90550       -2.67706       -0.10535
C          6.41140       -2.78474        0.15307
C          6.95784       -4.21358        0.07336
C          8.46749       -4.29856        0.31771
C          9.02739       -5.72339        0.26982
C         10.53965       -5.78757        0.50369
C         11.11178       -7.20804        0.48563
C         12.62924       -7.25288        0.68801
C         13.21163       -8.66922        0.68848
C         14.73831       -8.69837        0.80947
C         15.32517      -10.11285        0.82505
C         16.85673      -10.13687        0.84446
C         17.43858      -11.55355        0.83417
C         18.96715      -11.58155        0.73010
C         19.52527      -13.00996        0.67308
C         21.02299      -13.00143        0.39089
N         21.64333      -14.37027        0.46909
N         20.90719      -15.29409       -0.48806
O         21.36098      -14.87560       -1.75334
O         21.49211      -16.55689       -0.25387
C         23.14940      -14.42180        0.31226
C         23.92510      -13.52940        1.28825
C         23.66057      -13.65385        2.80108
C         23.79842      -15.07209        3.40212
S         22.20343      -15.68107        3.96826
O         21.78557      -14.97425        5.15252
O         21.31016      -15.74244        2.81293
O         22.52691      -17.21336        4.32772
H          0.51467        1.49558       -0.34884
H          0.25836       -0.15356        0.25286
H          0.61160        0.11854       -1.46349
H          2.56839        0.70409        0.85525
H          2.91804        0.96909       -0.84900
H          2.64818       -1.50272       -1.28312
H          2.31561       -1.76180        0.42731
H          4.59759       -0.84608        1.00375
H          4.92743       -0.59972       -0.70846
H          4.67651       -3.08166       -1.10709
H          4.36390       -3.32068        0.61022
H          6.64014       -2.36470        1.14860
H          6.95031       -2.14848       -0.57120
H          6.72272       -4.64188       -0.91703
H          6.43161       -4.84795        0.80841
H          8.70250       -3.85001        1.29923
H          8.99185       -3.67625       -0.42904
H          8.78883       -6.17900       -0.70750
H          8.51311       -6.34384        1.02490
H         10.77873       -5.31218        1.47141
H         11.05160       -5.17966       -0.26329
H         10.85805       -7.69314       -0.47353
H         10.61852       -7.81142        1.26801
H         12.88677       -6.75253        1.63809
H         13.11746       -6.65970       -0.10547
H         12.91225       -9.18747       -0.23969
H         12.76505       -9.24946        1.51497
H         15.04552       -8.16402        1.72548
H         15.17758       -8.13230       -0.03091
H         14.96793      -10.66401       -0.06282
H         14.93584      -10.66366        1.69896
H         17.22541       -9.59257        1.73111
H         17.23712       -9.58216       -0.03135
H         17.01199      -12.11373       -0.01628
H         17.12004      -12.09244        1.74302
H         19.41135      -11.04201        1.58387
H         19.27579      -11.03042       -0.17523
H         18.99935      -13.57839       -0.10735
H         19.32941      -13.52975        1.62583
H         21.55297      -12.39747        1.13921
H         21.26383      -12.59819       -0.60172
H         21.41041      -14.81292        1.39849
H         20.54907      -14.90178       -2.29312
H         20.72968      -17.09499        0.03230
H         23.37432      -14.12899       -0.71938
H         23.40929      -15.47972        0.43324
H         23.80549      -12.47307        1.00781
H         24.98323      -13.76223        1.08896
H         22.67584      -13.23382        3.06121
H         24.37887      -12.99877        3.31043
H         24.44324      -15.08562        4.28987
H         24.17999      -15.81928        2.69267
H         22.51142      -17.31511        5.30079
