99

C         22.43407        2.92247      -12.73048
C         21.78841        1.53548      -12.68945
C         21.12062        1.21371      -11.34769
C         20.46188       -0.16828      -11.30617
C         19.78881       -0.49480       -9.96911
C         19.12606       -1.87555       -9.94313
C         18.43836       -2.21132       -8.61583
C         17.78038       -3.59480       -8.60828
C         17.06697       -3.93694       -7.29658
C         16.41896       -5.32585       -7.30893
C         15.65735       -5.65262       -6.01902
C         15.04818       -7.04368       -6.04546
O         14.27735       -7.22106       -4.83670
C         13.79145       -8.52981       -4.62191
C         14.80471       -9.31813       -3.77002
O         14.36157      -10.59921       -3.36116
C         13.60780      -10.54162       -2.16169
N         14.43292      -10.03675       -1.06814
C         15.19369       -8.95393       -1.35755
N         15.90097       -8.31722       -0.36766
C         16.62398       -7.16911       -0.67349
N         16.65818       -6.49946       -1.79175
N         17.52725       -5.42607       -1.58843
C         17.93374       -5.51896       -0.34952
O         17.39664       -6.63099        0.30128
S         18.95653       -4.51101        0.60240
C         19.12644       -3.07058       -0.52461
C         19.76978       -1.92794        0.26216
C         19.86567       -0.64772       -0.57957
C         20.42245        0.54084        0.21237
C         20.45036        1.84564       -0.58980
C         20.96293        3.04547        0.21519
C         20.95267        4.35438       -0.57789
C         15.71645       -8.65888        1.07215
C         14.55520       -7.90972        1.72578
C         14.41707       -8.27927        3.20589
C         13.31295       -7.49322        3.92138
C         13.05411       -7.99630        5.34687
N         12.56007       -9.38165        5.32620
N         15.19395       -8.50137       -2.60283
H         22.90469        3.12052      -13.70333
H         23.21209        3.02434      -11.95896
H         21.69080        3.71449      -12.55430
H         22.54955        0.76732      -12.90837
H         21.03900        1.45378      -13.49503
H         20.36357        1.98632      -11.12393
H         21.87139        1.28660      -10.54063
H         21.21932       -0.94019      -11.53031
H         19.71380       -0.23874      -12.11553
H         19.03271        0.27775       -9.74287
H         20.53590       -0.43150       -9.15808
H         19.88408       -2.64726      -10.16574
H         18.38598       -1.93819      -10.76033
H         17.67661       -1.44297       -8.39462
H         19.17504       -2.15091       -7.79514
H         18.54585       -4.36256       -8.81859
H         17.05705       -3.65665       -9.44023
H         16.29394       -3.17599       -7.09120
H         17.78330       -3.87479       -6.45866
H         17.19929       -6.08736       -7.48358
H         15.72965       -5.39616       -8.16801
H         14.84939       -4.92005       -5.86276
H         16.32821       -5.57099       -5.14767
H         15.84247       -7.81142       -6.11448
H         14.38143       -7.17245       -6.91762
H         13.61302       -9.08293       -5.55961
H         12.83372       -8.44418       -4.08391
H         15.72095       -9.50205       -4.35369
H         13.28449      -11.56032       -1.92819
H         12.72879       -9.88473       -2.26986
H         14.71730      -10.66917       -0.32843
H         18.11962       -2.80920       -0.87579
H         19.73362       -3.37586       -1.38667
H         20.77412       -2.22485        0.60644
H         19.17368       -1.72459        1.16680
H         18.86293       -0.39122       -0.96260
H         20.49499       -0.83271       -1.46648
H         21.44038        0.30280        0.56666
H         19.81204        0.68682        1.12074
H         19.43338        2.06546       -0.96039
H         21.07688        1.71273       -1.48921
H         21.98607        2.83489        0.56947
H         20.34706        3.15993        1.12333
H         21.58654        4.28463       -1.47431
H         21.32442        5.19302        0.02613
H         19.93625        4.61099       -0.91177
H         16.66623       -8.42644        1.56691
H         15.59797       -9.74684        1.15861
H         13.61960       -8.13845        1.19010
H         14.72581       -6.82599        1.61757
H         15.37761       -8.10210        3.72038
H         14.20041       -9.35459        3.31159
H         12.37439       -7.56305        3.34324
H         13.57123       -6.42241        3.95846
H         12.37588       -7.28797        5.85823
H         13.99908       -7.98752        5.91306
H         11.57255       -9.40210        5.06625
H         12.61744       -9.79789        6.25532
H         15.63493       -7.56957       -2.77068
