52

C          2.21288        4.17434        0.90478
C          2.70961        2.82698        1.43907
C          3.93497        3.00154        2.32496
O          4.34182        1.72917        2.93216
C          5.23380        0.99034        2.24622
O          5.71952        1.28072        1.17171
C          5.60263       -0.27812        3.00924
C          6.70133        0.01587        4.07943
O          7.54715        1.07797        3.67349
C          8.53012        0.67532        2.73182
N          9.45364       -0.22971        3.40217
C          8.87629       -1.16980        4.18842
N          9.64720       -2.07846        4.81518
N          7.54413       -1.23424        4.25447
C          6.89730       -2.42351        4.81936
C          6.08704        0.44660        5.42327
C          7.05387        0.82764        6.54138
C          6.25141        1.50038        7.68841
N          6.95470        1.71072        8.93820
C          8.17865        2.51558        8.92145
C          9.32394        1.82647        9.64073
O          9.65748        0.61750        8.91359
O          7.73737       -0.35006        6.99820
H          1.33291        4.03571        0.26457
H          2.98330        4.67939        0.30472
H          1.92536        4.85206        1.72161
H          2.96289        2.15896        0.60233
H          1.91667        2.33268        2.02122
H          3.72107        3.64733        3.18684
H          4.78813        3.40492        1.76334
H          5.97296       -0.99799        2.26985
H          4.71094       -0.69612        3.49319
H          9.06475        1.57340        2.40928
H          8.07964        0.18107        1.85791
H         10.34665        0.14461        3.71148
H         10.63819       -2.12389        4.61150
H          9.32777       -2.47902        5.68967
H          7.42145       -3.31922        4.46586
H          5.86559       -2.47128        4.45763
H          6.89084       -2.38738        5.91786
H          5.41239       -0.34654        5.77963
H          5.44777        1.31133        5.19219
H          7.79403        1.54469        6.14192
H          5.37199        0.87638        7.91445
H          5.86703        2.46563        7.31518
H          7.09493        0.82952        9.42707
H          8.01048        3.49118        9.41115
H          8.50172        2.73875        7.88887
H          9.02669        1.57369       10.67348
H         10.19819        2.49571        9.68450
H         10.24526        0.07825        9.46393
H          8.36366       -0.06883        7.70322
