55

C          0.64360       -0.11845        0.77101
C          2.09992       -0.52990        0.99852
C          2.91144        0.52108        1.76500
C          4.37041        0.10997        1.99031
C          5.18548        1.17202        2.74382
C          6.62375        0.73007        2.91021
O          7.36103        1.80268        3.62634
C          8.67366        1.77480        3.56923
O          9.32631        0.89211        2.99361
C          9.32713        2.97961        4.23689
C         10.76299        2.72598        4.72694
N         11.54583        1.98513        3.65377
C         12.08151        3.05328        2.74152
C         12.43950        4.22070        3.68147
C         11.60426        3.99830        4.97634
C         12.51585        3.83748        6.19724
O         11.71298        3.50647        7.30662
C         12.46717        3.38196        8.52904
C         11.52852        2.95927        9.63976
C         13.17922        2.54229        1.78549
C         14.24755        1.54341        2.35248
F         15.44048        1.76128        1.77780
F         14.37964        1.73426        3.72399
F         12.56688        1.86746        0.75193
F         13.79668        3.63368        1.26383
H          0.09056       -0.89256        0.22263
H          0.57644        0.81269        0.18891
H          0.12111        0.04939        1.72436
H          2.58542       -0.72375        0.02696
H          2.13264       -1.48556        1.54852
H          2.43088        0.71536        2.73977
H          2.88190        1.47780        1.21504
H          4.84504       -0.09342        1.01478
H          4.39956       -0.84233        2.54745
H          4.73881        1.36164        3.73227
H          5.16036        2.12475        2.19110
H          7.12909        0.56303        1.94976
H          6.71981       -0.17970        3.51968
H          8.71677        3.30569        5.08841
H          9.29070        3.80624        3.50717
H         10.74117        2.08635        5.61950
H         10.82753        1.32096        3.19615
H         12.31772        1.47037        4.09465
H         11.25142        3.33064        2.07566
H         12.21578        5.17456        3.19379
H         13.51254        4.22212        3.91450
H         10.92669        4.84208        5.16448
H         13.07062        4.78172        6.36178
H         13.27986        3.04948        6.01291
H         12.94517        4.35226        8.75712
H         13.27275        2.63753        8.38304
H         10.72873        3.69775        9.78069
H         12.08366        2.87359       10.58339
H         11.07219        1.98358        9.42440
H         13.93730        0.49979        2.18106
