80

C          0.74894       -0.20816       -0.01306
C          2.27669       -0.14924       -0.07907
C          2.87877        0.91508        0.84368
C          4.40797        0.98378        0.79149
C          5.00280        2.04931        1.71713
C          6.53242        2.12188        1.67401
C          7.11598        3.18110        2.61387
C          8.64558        3.26385        2.58458
C          9.20609        4.33935        3.52015
C         10.73259        4.46560        3.48427
C         11.25625        5.57518        4.40176
C         12.77704        5.75704        4.35728
C         13.24625        6.90192        5.25945
C         14.77351        7.14077        5.18455
C         15.20559        8.26392        6.06006
N         15.63782        8.12106        7.29601
N         15.81516        9.38854        7.74047
C         15.51314       10.32638        6.84100
N         15.11819        9.62039        5.74006
C         14.71414       10.14149        4.42636
C         15.68020        9.81980        3.31247
C         15.33841        9.48169        2.06365
Br        13.55356        9.27534        1.48383
Br        17.53929        9.98072        3.70012
C         15.53870       11.81071        7.14089
C         14.07499       12.38113        7.22330
C         12.89322       11.55352        7.78002
C         12.94072       11.25792        9.28633
C         11.59174       12.30021        7.44166
C         16.38666       12.06236        8.43567
O         16.11102       11.26537        9.58781
C         16.31050       12.62485        6.06997
H          0.34467       -0.97808       -0.68458
H          0.30067        0.75433       -0.30159
H          0.40388       -0.44057        1.00554
H          2.59465        0.04907       -1.11661
H          2.69631       -1.13521        0.18296
H          2.55789        0.71823        1.88203
H          2.45964        1.90252        0.58054
H          4.72916        1.18095       -0.24649
H          4.82653       -0.00334        1.05551
H          4.67786        1.85186        2.75391
H          4.58401        3.03630        1.45230
H          6.85964        2.33008        0.64014
H          6.95218        1.13369        1.93155
H          6.78321        2.97339        3.64609
H          6.69491        4.16848        2.35396
H          8.98092        3.46692        1.55234
H          9.07205        2.28230        2.85517
H          8.88305        4.12649        4.55429
H          8.75760        5.31417        3.25835
H         11.05913        4.66354        2.44835
H         11.19076        3.50326        3.77020
H         10.94414        5.36747        5.43996
H         10.77191        6.52841        4.12415
H         13.09466        5.95374        3.31876
H         13.27565        4.82147        4.66167
H         12.97403        6.69213        6.30591
H         12.70834        7.82357        4.97794
H         15.07978        7.32909        4.14524
H         15.30883        6.24395        5.52528
H         16.07289        9.61689        8.71279
H         14.58239       11.22511        4.52420
H         13.73330        9.71594        4.17121
H         16.06912        9.31081        1.27617
H         13.79600       12.67096        6.19770
H         14.14314       13.33182        7.78016
H         12.86286       10.58481        7.24801
H         13.10234       12.18126        9.86782
H         13.70812       10.51975        9.55434
H         11.98249       10.83959        9.62274
H         11.55454       13.27511        7.95116
H         10.71603       11.72337        7.76684
H         11.49417       12.48324        6.36227
H         16.29463       13.13391        8.67205
H         17.44226       11.86414        8.20081
H         15.31207       11.59478       10.03135
H         15.79268       12.66760        5.10615
H         17.31902       12.22804        5.90292
H         16.40400       13.66116        6.42359
