76

Br         1.50929       -1.23467        0.33995
C          3.02122        0.00011        0.34501
C          3.50174        0.26679       -1.07994
C          4.68681        1.22850       -1.03558
N          5.17828        1.61093       -2.43558
C          4.64605        2.94615       -2.98609
C          5.03678        3.04846       -4.47041
N          6.44930        2.88285       -4.73041
C          6.99242        1.68048       -4.15883
C          6.68525        1.41765       -2.65279
C          7.71322        2.00718       -1.61538
C          7.83362        3.53039       -1.16459
C          6.94789        4.15881        0.00521
C          6.98729        3.50511        1.44026
C          6.47126        4.37932        2.66497
C          5.00734        4.98410        2.69073
C          3.71732        4.06644        2.62110
C          3.52385        2.91547        3.67744
F          3.70986        3.36361        4.92275
F          2.26821        2.44679        3.55508
F          4.37535        1.89752        3.43673
F          2.66925        4.91012        2.74783
F          3.64613        3.48928        1.37962
F          4.93019        5.68170        3.84737
F          4.89861        5.85561        1.65117
F          6.60324        3.57640        3.75207
F          7.31166        5.42995        2.80236
F          6.24193        2.36426        1.41780
F          8.26713        3.17985        1.73006
F          7.36396        5.43937        0.09265
F          5.64593        4.16128       -0.41446
F          9.11891        3.73178       -0.81783
F          7.56434        4.29933       -2.26809
F          7.65954        1.25133       -0.47236
F          8.91635        1.72565       -2.19727
C          3.13112        3.08663       -2.79273
O          2.88272        4.42845       -3.14497
C          1.60703        4.94563       -2.89957
C          0.47791        4.12368       -2.86471
C         -0.79900        4.66637       -2.66490
C         -2.02053        3.78423       -2.64626
C         -0.90080        6.05341       -2.50241
C          0.23743        6.85760       -2.53202
C          1.52549        6.33839       -2.72302
C          2.72830        7.27118       -2.68724
C          3.63735        7.00318       -1.47141
C          3.52695        7.31461       -4.00382
H          3.79588       -0.46487        0.96558
H          2.66711        0.91389        0.83454
H          2.66882        0.67754       -1.66835
H          3.80108       -0.68323       -1.55187
H          5.52968        0.76284       -0.51895
H          4.44804        2.15917       -0.51572
H          4.77812        0.89459       -3.06498
H          5.13973        3.73402       -2.41392
H          4.69565        4.02478       -4.83534
H          4.47496        2.28290       -5.04195
H          6.99614        3.71449       -4.51928
H          8.07552        1.63823       -4.31088
H          6.56910        0.81452       -4.70216
H          6.83791        0.34087       -2.47353
H          2.81459        2.90540       -1.75121
H          2.59272        2.37156       -3.44760
H          0.56933        3.04661       -3.01493
H         -1.75537        2.72062       -2.69970
H         -2.68054        4.00802       -3.49731
H         -2.61074        3.94124       -1.73245
H         -1.88000        6.50968       -2.34726
H          0.13311        7.93562       -2.39073
H          2.30349        8.27849       -2.54597
H          4.14176        6.03114       -1.55274
H          3.05987        7.00744       -0.53709
H          4.41383        7.77741       -1.39355
H          4.05698        6.37046       -4.18922
H          4.27518        8.11882       -3.96648
H          2.86824        7.50610       -4.86126
