99

C          0.25078        0.26772        0.28355
C          1.78032        0.26139        0.34579
C          2.40452       -1.02054       -0.21636
C          3.93479       -1.04444       -0.15044
C          4.55194       -2.32229       -0.72722
C          6.08074       -2.36739       -0.63977
C          6.68680       -3.64231       -1.23442
C          8.21246       -3.71879       -1.11962
C          8.80464       -4.99049       -1.73466
C         10.32432       -5.10814       -1.58081
C         10.90383       -6.36803       -2.23147
C         12.40520       -6.55778       -1.99273
C         12.97776       -7.79491       -2.69175
C         14.44943       -8.06608       -2.36683
C         15.01469       -9.29767       -3.08164
C         16.46884       -9.60592       -2.71208
C         17.03020      -10.84449       -3.41806
C         18.47648      -11.16123       -3.02668
C         19.03946      -12.40363       -3.72656
C         20.48615      -12.70168       -3.30091
C         21.08532      -14.02366       -3.78740
C         21.10668      -14.18989       -5.31720
N         21.58993      -15.47306       -5.79762
C         20.86570      -16.61332       -5.23988
C         20.81305      -16.56296       -3.70417
N         20.30629      -15.21918       -3.19287
C         20.20315      -15.19690       -1.71135
C         18.93411      -15.11769       -1.14328
C         18.81432      -15.09323        0.24851
C         19.95772      -15.14983        1.04803
C         21.22313      -15.23701        0.45983
C         21.35607      -15.26293       -0.92952
C         21.47392      -17.95589       -5.66173
C         21.18484      -18.46294       -7.08703
C         21.94870      -17.75506       -8.23330
N         21.43251      -16.48316       -8.71832
O         21.54831      -19.84625       -7.01249
H         -0.16695        1.19879        0.69113
H         -0.17556       -0.56729        0.85961
H         -0.10723        0.16891       -0.75227
H          2.10777        0.39606        1.39079
H          2.17614        1.12994       -0.20760
H          2.08191       -1.15208       -1.26462
H          2.00264       -1.89119        0.33201
H          4.25635       -0.92501        0.89941
H          4.33781       -0.16888       -0.68958
H          4.24394       -2.43076       -1.78229
H          4.13286       -3.19843       -0.20125
H          6.38835       -2.27447        0.41690
H          6.50378       -1.48671       -1.15458
H          6.39674       -3.72105       -2.29718
H          6.24200       -4.52234       -0.73671
H          8.50121       -3.65835       -0.05527
H          8.66240       -2.83425       -1.60400
H          8.54149       -5.03233       -2.80648
H          8.32639       -5.87336       -1.27438
H         10.58220       -5.09919       -0.50684
H         10.80941       -4.21579       -2.01401
H         10.70556       -6.34061       -3.31751
H         10.36510       -7.25399       -1.85084
H         12.59294       -6.63150       -0.90687
H         12.95050       -5.65959       -2.33201
H         12.85694       -7.68487       -3.78383
H         12.37811       -8.67924       -2.41149
H         14.56211       -8.19457       -1.27575
H         15.05489       -7.18093       -2.62957
H         14.93649       -9.15493       -4.17367
H         14.38570      -10.17473       -2.84676
H         16.54547       -9.74372       -1.61914
H         17.10112       -8.73313       -2.95083
H         16.96790      -10.70320       -4.51112
H         16.39005      -11.71552       -3.18880
H         18.54108      -11.30302       -1.93382
H         19.12023      -10.29564       -3.25849
H         18.97812      -12.26550       -4.81749
H         18.37128      -13.25517       -3.49404
H         20.56527      -12.65424       -2.20417
H         21.14829      -11.90590       -3.67705
H         22.10654      -14.14015       -3.39425
H         21.72890      -13.38588       -5.73419
H         20.09059      -14.03459       -5.71889
H         22.59836      -15.57906       -5.67053
H         19.82769      -16.55452       -5.62307
H         21.81232      -16.70525       -3.27081
H         20.13863      -17.32042       -3.28289
H         19.34117      -15.11119       -3.54195
H         18.04174      -15.06969       -1.77155
H         17.82598      -15.02934        0.70294
H         19.86375      -15.12730        2.13355
H         22.11504      -15.28604        1.08413
H         22.34723      -15.32802       -1.37914
H         21.09383      -18.73947       -4.98762
H         22.56711      -17.92900       -5.50714
H         20.09561      -18.36198       -7.28430
H         21.96909      -18.45343       -9.08752
H         23.00141      -17.62541       -7.93002
H         20.51888      -16.59265       -9.15738
H         21.35083      -15.81001       -7.95435
H         21.55707      -20.21062       -7.91239
