66

C          2.31840        1.02468       -0.15544
C          3.71558        0.40206       -0.16837
C          3.80082       -0.86614       -1.02649
C          5.19592       -1.50256       -1.01772
C          5.25857       -2.76745       -1.85401
O          6.58371       -3.33284       -1.73750
C          6.71889       -4.56653       -2.38132
C          8.13044       -5.05528       -2.02142
N          8.34971       -6.43551       -2.46745
C          7.99793       -7.60515       -1.88447
N          8.31069       -8.61242       -2.71712
N          8.84741       -8.09046       -3.80572
N          8.86735       -6.78514       -3.67402
C          9.51741       -5.89008       -4.64576
C         10.97841       -5.60894       -4.25658
C         11.70046       -4.73389       -5.29564
P         11.68690       -5.47799       -6.96958
O         11.66805       -6.96319       -6.93508
O         10.38846       -4.75005       -7.57258
C          9.92237       -5.10528       -8.91865
C          8.79678       -6.11984       -8.85000
O         12.88569       -4.81669       -7.79420
C         14.11320       -5.56405       -8.09499
C         15.23735       -5.15210       -7.16532
C          7.40454       -7.78224       -0.53499
C          8.38371       -8.39933        0.51580
C          9.55054       -7.44869        0.84888
F          9.08077       -6.27019        1.36192
F         10.39432       -7.97900        1.73633
F         10.26285       -7.13202       -0.27663
O          7.69420       -8.77758        1.67589
H          2.29112        1.92975        0.46574
H          1.57167        0.32451        0.24728
H          1.99508        1.30769       -1.16784
H          4.02369        0.16166        0.86296
H          4.44712        1.13948       -0.53853
H          3.50762       -0.62460       -2.06287
H          3.05904       -1.59889       -0.66342
H          5.48875       -1.74931        0.01558
H          5.94210       -0.78531       -1.39514
H          5.04412       -2.55784       -2.91878
H          4.52035       -3.51246       -1.49981
H          6.60444       -4.48669       -3.48287
H          5.96568       -5.30209       -2.02801
H          8.27195       -5.03849       -0.93388
H          8.90339       -4.41522       -2.46124
H          8.90620       -4.98265       -4.74069
H          9.46885       -6.44577       -5.59126
H         11.49281       -6.57728       -4.17747
H         11.02656       -5.12290       -3.26966
H         12.75355       -4.63339       -4.99862
H         11.28344       -3.71838       -5.35150
H         10.77140       -5.48102       -9.50822
H          9.59396       -4.15577       -9.36052
H          9.14789       -7.06955       -8.42568
H          8.41606       -6.31804       -9.86160
H          7.96115       -5.73904       -8.24629
H         14.34106       -5.31107       -9.13845
H         13.89133       -6.63804       -8.02996
H         15.40384       -4.06753       -7.20155
H         16.16747       -5.65008       -7.47282
H         15.03321       -5.44603       -6.12617
H          6.57710       -8.49909       -0.62374
H          6.99221       -6.83868       -0.15324
H          8.82652       -9.31726        0.10049
H          7.42740       -7.98969        2.18185
