83

C          0.60753        7.49038       13.18332
C          2.13443        7.38184       13.20181
C          2.67615        6.24794       12.32380
C          4.20352        6.13199       12.34466
C          4.75188        4.99251       11.47917
C          6.27936        4.88107       11.51709
C          6.84246        3.72780       10.67977
C          8.37023        3.62936       10.73801
C          8.95460        2.45769        9.94179
C         10.48297        2.38361       10.01771
C         11.09451        1.19798        9.26412
C         12.62390        1.15882        9.35172
C         13.25918       -0.03148        8.62183
C         14.79503       -0.02071        8.60816
C         15.44095       -0.21562        9.98706
C         16.97056       -0.09310        9.94678
C         17.64931       -0.21871       11.30314
C         19.17637       -0.11069       11.38561
C         19.73580        1.25659       10.98400
C         21.27317        1.33897       10.99051
C         22.00700        0.28191       10.14485
C         21.67882        0.34285        8.63422
S         21.13922       -1.27443        8.02883
O         22.22280       -2.22212        8.11227
O         19.84448       -1.60010        8.60957
Cl        20.79784       -0.84562        6.03184
C         19.47589       -0.55610       12.83123
C         18.37722       -1.57659       13.18662
N         17.41030       -1.57514       12.00111
C         17.58105       -2.79643       11.10006
C         17.25412       -4.00208       11.83185
C         16.96484       -5.00249       12.44445
H          0.25350        8.31297       13.81997
H          0.13681        6.56418       13.54573
H          0.23208        7.67343       12.16540
H          2.48105        7.23343       14.23878
H          2.57596        8.33756       12.87153
H          2.33390        6.39666       11.28430
H          2.23264        5.29089       12.65163
H          4.54306        5.99176       13.38632
H          4.64588        7.08757       12.01136
H          4.42008        5.13221       10.43532
H          4.30801        4.03710       11.81063
H          6.60796        4.76118       12.56481
H          6.72218        5.83198       11.17135
H          6.52154        3.84399        9.62978
H          6.40138        2.77645       11.02618
H          8.68697        3.54273       11.79274
H          8.80924        4.57375       10.37026
H          8.64286        2.53706        8.88579
H          8.52286        1.51176       10.31363
H         10.78963        2.33513       11.07812
H         10.91113        3.32287        9.62496
H         10.79039        1.23684        8.20389
H         10.67937        0.25573        9.66291
H         12.91223        1.15198       10.41774
H         13.03424        2.09600        8.93492
H         12.90620       -0.04050        7.57839
H         12.89914       -0.97643        9.06596
H         15.14616        0.93572        8.18329
H         15.16247       -0.80789        7.92936
H         15.12919       -1.20393       10.37648
H         15.04343        0.52823       10.69731
H         17.22698        0.91118        9.57381
H         17.41972       -0.78849        9.22075
H         17.19393        0.50495       12.00382
H         19.58535       -0.85485       10.68665
H         19.33770        2.03685       11.65381
H         19.36062        1.50463        9.97846
H         21.64640        1.25624       12.02321
H         21.56424        2.34488       10.65143
H         21.80217       -0.72499       10.53951
H         23.08957        0.41513       10.26494
H         22.54768        0.60338        8.01790
H         20.85678        1.02818        8.38991
H         19.42766        0.30350       13.51479
H         20.47329       -0.99957       12.93307
H         17.80299       -1.29454       14.07603
H         18.73396       -2.60281       13.32339
H         16.44469       -1.61426       12.34868
H         18.61421       -2.80143       10.72576
H         16.91356       -2.66393       10.23891
H         16.71147       -5.89959       12.97375
