62

C          2.52717       -0.90030       -3.29209
C          3.79797       -0.95174       -2.46993
O          3.99720        0.29539       -1.70970
P          4.81720        1.51965       -2.33797
O          5.49440        1.25929       -3.62409
C          3.67834        2.94376       -2.33577
C          3.07296        3.31571       -0.95991
N          3.00793        4.77074       -0.72685
C          4.13677        5.39851       -0.33873
N          5.25600        4.69659       -0.05605
N          4.18444        6.73648       -0.19552
C          3.06456        7.67124       -0.37761
C          1.77331        6.85737       -0.34878
C          1.85344        5.59504       -1.21516
C          0.52191        4.81530       -1.23493
C          0.03182        4.41728        0.16560
O         -0.85421        3.31370       -0.00741
C         -0.55563        5.58258       -2.01439
C          3.30128        8.50801       -1.65306
C          2.30963        9.65433       -1.93007
C          2.16004       10.75006       -0.87478
C          3.46409       11.47555       -0.40890
Br         4.50173       12.19817       -1.90015
F          3.18409       12.45609        0.46179
F          4.24926       10.56815        0.25578
Br         0.89786       12.09663       -1.53896
F          1.61690       10.20726        0.28518
O          5.77819        1.98988       -1.10734
C          6.94665        1.15515       -0.78682
C          7.77050        1.85824        0.26927
H          2.38047       -1.86796       -3.79219
H          2.59116       -0.13108       -4.07388
H          1.64942       -0.70758       -2.66118
H          4.68125       -1.11556       -3.10093
H          3.75391       -1.73038       -1.69836
H          2.89737        2.72568       -3.07747
H          4.27239        3.77626       -2.74228
H          3.64505        2.87502       -0.13410
H          2.06479        2.90665       -0.86161
H          5.41608        3.73833       -0.38644
H          6.07472        5.19822        0.26483
H          5.08583        7.14067        0.03609
H          3.07149        8.33951        0.49347
H          0.94099        7.48403       -0.68782
H          1.55671        6.56813        0.68977
H          2.07183        5.88012       -2.26054
H          0.68320        3.87530       -1.78632
H         -0.48385        5.26994        0.64289
H          0.88392        4.13850        0.81636
H         -1.32631        3.15334        0.82421
H         -0.82847        6.52862       -1.52554
H         -1.46334        4.97049       -2.07400
H         -0.23191        5.80422       -3.04117
H          3.26979        7.84225       -2.53038
H          4.32485        8.90874       -1.61851
H          1.29393        9.26392       -2.08828
H          2.60002       10.13810       -2.87096
H          7.51482        1.00000       -1.71446
H          6.57652        0.18432       -0.42563
H          8.15384        2.82033       -0.09848
H          8.63727        1.23444        0.52641
H          7.19225        2.02253        1.18877
