76

N         -1.25558       -0.71909       -1.53969
C         -0.13639       -0.60168       -0.85726
N          0.89013       -1.43423       -1.01660
C          2.09041       -1.00997       -0.31987
C          1.69925        0.39892        0.23971
N          0.20127        0.39320        0.06252
C         -0.59367        1.39756        0.70882
O         -0.06613        2.37505        1.16099
C         -2.11918        1.20047        1.04370
C         -3.04961        2.38822        0.55299
C         -3.07070        2.69800       -0.98900
C         -3.97445        1.72683       -1.80473
O         -3.59757        0.59540       -2.03426
O         -5.13694        2.19576       -2.22202
F         -3.50612        3.97708       -1.15495
F         -1.79763        2.60530       -1.47894
F         -4.32443        2.06968        0.91551
F         -2.67675        3.50702        1.19943
F         -2.63473        0.01503        0.61760
F         -2.19787        1.21012        2.39426
C          2.41275        1.43694       -0.78452
C          2.24375        3.02449       -0.96912
C          2.77809        4.15492        0.01583
C          4.30317        4.21727        0.44971
C          5.48190        4.40131       -0.59468
C          5.56849        5.64649       -1.56791
C          5.60836        7.12919       -1.01778
C          6.76636        7.54821       -0.03725
F          7.96594        7.21010       -0.53765
F          6.71779        8.88058        0.12258
F          6.61266        6.96744        1.16650
F          5.72105        7.91162       -2.12097
F          4.42564        7.40587       -0.41101
F          6.69978        5.44726       -2.29046
F          4.50876        5.58713       -2.41729
F          6.61866        4.38177        0.14648
F          5.48879        3.30386       -1.40023
F          4.37520        5.23149        1.34232
F          4.58465        3.05571        1.10555
F          2.47122        5.31578       -0.61784
F          2.06724        4.11731        1.16331
F          2.86406        3.25675       -2.15520
F          0.91886        3.26987       -1.14647
F          3.74035        1.18291       -0.72719
F          1.95644        0.98534       -2.01228
C          2.26117        0.49041        1.72599
C          1.52366       -0.21069        2.96669
C          1.33227       -1.77859        3.09768
C          2.54058       -2.79774        3.22828
C          3.64074       -2.66515        4.36019
C          3.26236       -2.69909        5.89601
C          2.55743       -3.95963        6.54376
C          3.25915       -5.36510        6.43337
F          4.55292       -5.28544        6.78279
F          2.63198       -6.21628        7.25920
F          3.17086       -5.84465        5.17766
F          2.45202       -3.66531        7.86226
F          1.30686       -4.07393        6.02390
F          4.43083       -2.49715        6.55019
F          2.44379       -1.64154        6.14385
F          4.51712       -3.67296        4.12361
F          4.28531       -1.48780        4.15213
F          1.96527       -4.01739        3.31771
F          3.23989       -2.75856        2.05035
F          0.53070       -1.96108        4.16512
F          0.63347       -2.18019        1.97978
F          2.18658        0.22028        4.05740
F          0.25539        0.28612        3.02199
F          3.52515       -0.02952        1.67831
F          2.37303        1.77711        2.10201
H         -1.36287       -1.52710       -2.14545
H         -2.07111       -0.07920       -1.53310
H          0.91663       -2.12687       -1.75762
H          2.93985       -0.94363       -1.00619
H          2.34973       -1.71306        0.47193
H         -5.24686        3.13832       -1.97967
