64

C          9.45296       -8.15270       -2.66378
C          8.94378       -7.11225       -1.66489
C          7.45861       -7.28068       -1.32028
C          6.90209       -6.23930       -0.36096
O          6.96012       -4.90210       -0.96735
C          5.81753       -4.43634       -1.52623
O          4.74064       -4.98278       -1.51651
C          6.04909       -3.05982       -2.17326
N          7.39287       -2.89095       -2.73378
C          8.38055       -2.41158       -1.92765
N          9.53647       -3.07523       -1.79362
C         10.75708       -2.52098       -1.18480
O         10.52261       -1.23800       -0.66236
C          9.20859       -1.12830       -0.13591
N          8.22567       -1.28294       -1.20792
C          7.39404       -0.13572       -1.63116
C          8.15595        1.13166       -2.08162
C          8.80706        1.03520       -3.47801
C         10.07939        0.19264       -3.61241
C          7.15399        2.29835       -2.04436
C          7.72535       -3.76446       -3.89147
C          8.57171       -3.06506       -4.92694
C          8.03407       -2.00004       -5.66338
C          8.81170       -1.36452       -6.62943
C         10.12356       -1.78424       -6.86348
C         10.68325       -2.84864       -6.14199
C          9.88383       -3.48059       -5.17661
C         12.10260       -3.29227       -6.38469
H         10.52006       -8.01446       -2.88327
H          8.90411       -8.09677       -3.61516
H          9.32674       -9.17144       -2.27154
H          9.10607       -6.10174       -2.08481
H          9.54007       -7.15429       -0.73819
H          7.30297       -8.26773       -0.85489
H          6.84799       -7.28376       -2.23818
H          7.50903       -6.15154        0.55026
H          5.85986       -6.44933       -0.09254
H          5.85953       -2.30022       -1.40368
H          5.29644       -2.93006       -2.96025
H          9.53842       -4.06596       -2.02288
H         11.54387       -2.40877       -1.94579
H         11.08964       -3.23349       -0.40687
H          9.11886       -0.13022        0.30132
H          9.02605       -1.89700        0.63549
H          6.73351        0.11499       -0.78670
H          6.75637       -0.48174       -2.45446
H          8.95001        1.34975       -1.34560
H          9.04936        2.06558       -3.78071
H          8.05029        0.68694       -4.20206
H         10.81279        0.44571       -2.83439
H         10.54734        0.37473       -4.58828
H          9.88526       -0.88551       -3.56416
H          6.32879        2.14065       -2.75545
H          7.65029        3.23694       -2.32045
H          6.71656        2.43166       -1.04520
H          6.75425       -4.04221       -4.32424
H          8.19187       -4.71025       -3.56763
H          7.00500       -1.67900       -5.49051
H          8.39147       -0.54548       -7.21404
H         10.71985       -1.28476       -7.62926
H         10.29320       -4.33202       -4.62422
H         12.41572       -3.08450       -7.41564
H         12.22904       -4.36716       -6.19982
H         12.80076       -2.75893       -5.72069
