82

C          0.62470        0.82115       -3.76483
C          2.11647        0.70026       -3.44877
C          2.74442        2.01658       -2.97464
C          4.24455        1.89147       -2.68044
C          4.87518        3.21028       -2.26808
O          6.29760        3.01069       -2.12879
C          6.97992        4.10949       -1.57186
C          8.44892        3.73598       -1.56516
O          9.24799        4.76386       -1.10296
C         10.59356        4.38219       -1.42820
C         10.48853        3.90365       -2.88837
N          9.05692        3.40151       -2.98798
C          8.30164        3.84548       -4.19963
C          7.63825        2.58449       -4.75887
O          8.03082        1.48015       -4.41240
O          6.68731        2.87462       -5.62354
C          5.95191        1.74556       -6.23585
C          4.55934        2.23366       -6.57815
C          3.66491        1.08740       -7.06736
C          2.21672        1.52784       -7.30546
C          1.26941        0.36057       -7.60210
C         -0.17454        0.80268       -7.84882
C         11.47805        2.80887       -3.28094
O         12.73846        3.40024       -3.08248
C         13.88334        2.68033       -3.42855
C         13.82853        1.33524       -3.80137
C         14.99802        0.63387       -4.12928
C         14.94179       -0.82201       -4.51543
C         16.21352        1.32515       -4.07564
C         16.24892        2.66845       -3.70260
C         15.09693        3.39132       -3.36721
C         15.21486        4.85409       -2.96003
C         14.44626        5.81565       -3.88681
C         14.86893        5.08489       -1.47629
H          0.21609       -0.12894       -4.13380
H          0.43885        1.58276       -4.53601
H          0.04750        1.10667       -2.87367
H          2.65571        0.34622       -4.34271
H          2.27102       -0.07388       -2.67888
H          2.21682        2.37066       -2.07253
H          2.58029        2.79297       -3.74300
H          4.76926        1.51091       -3.57077
H          4.41385        1.15024       -1.88372
H          4.46031        3.56593       -1.30760
H          4.69408        3.99594       -3.02718
H          6.68546        4.30388       -0.52282
H          6.81226        5.05180       -2.13089
H          8.60096        2.78987       -1.01195
H         10.94205        3.57519       -0.75992
H         11.23803        5.25793       -1.31285
H         10.58143        4.76235       -3.56486
H          9.03258        2.35674       -3.10562
H          9.01029        4.23884       -4.94083
H          7.58080        4.63252       -3.96236
H          5.94493        0.91963       -5.51222
H          6.52643        1.43420       -7.12004
H          4.61641        3.02949       -7.33677
H          4.11251        2.68488       -5.67798
H          3.67851        0.27539       -6.32002
H          4.07901        0.65276       -7.99284
H          2.18476        2.25253       -8.13721
H          1.85376        2.07333       -6.41663
H          1.29909       -0.34878       -6.75732
H          1.64065       -0.19643       -8.47855
H         -0.58858        1.32888       -6.97593
H         -0.82550       -0.05684       -8.05595
H         -0.24305        1.48493       -8.70875
H         11.33075        2.49497       -4.33172
H         11.32814        1.91910       -2.63491
H         12.87665        0.80380       -3.83737
H         13.90842       -1.18536       -4.58381
H         15.46927       -1.44578       -3.77881
H         15.42614       -0.99403       -5.48723
H         17.14204        0.80971       -4.32680
H         17.20833        3.18897       -3.66971
H         16.28392        5.09714       -3.07469
H         13.35917        5.71100       -3.76924
H         14.69296        5.63168       -4.94107
H         14.71031        6.85706       -3.65469
H         13.81204        4.86730       -1.26837
H         15.06069        6.13003       -1.19504
H         15.47656        4.44246       -0.82521
