78

C         11.06636        3.70317        7.34235
C         10.65554        3.12898        5.98494
C         11.40156        3.76388        4.80647
C         10.99241        3.19086        3.44649
C         11.75909        3.78914        2.26191
C         11.34692        3.18829        0.91456
C         12.14419        3.71712       -0.28326
C         11.72842        3.06264       -1.60451
C         12.53490        3.51873       -2.82613
C         12.10432        2.79591       -4.10698
C         12.89331        3.18649       -5.36390
C         12.42334        2.38819       -6.58615
C         13.02525        2.79123       -7.94831
P         14.83979        2.69140       -8.18108
C         15.66327        1.00724       -8.21050
C         15.55034        0.33582       -9.62638
C         16.20895       -1.05607       -9.66536
C         14.11528        0.22334      -10.16058
C         17.16257        1.27978       -7.91005
O         17.28832        2.00868       -6.69115
C         15.06006        0.15785       -7.07375
C         15.32689        3.68598       -9.63687
C         14.96066        5.18394       -9.59465
C         15.68291        6.01098       -8.52553
C         15.39428        7.51211       -8.65654
C         16.11574        8.35800       -7.60599
H         10.51624        3.22565        8.16487
H         10.86961        4.78428        7.39401
H         12.14016        3.55340        7.52958
H          9.57011        3.26267        5.84071
H         10.82956        2.03962        5.97704
H         12.48808        3.62644        4.94922
H         11.23117        4.85486        4.81224
H          9.90960        3.34685        3.29672
H         11.14086        2.09651        3.45581
H         12.84165        3.63402        2.41482
H         11.60876        4.88259        2.24019
H         10.27158        3.37406        0.74668
H         11.45869        2.09054        0.96190
H         13.22053        3.54170       -0.11014
H         12.02120        4.81168       -0.35617
H         10.65698        3.25811       -1.78501
H         11.82130        1.96671       -1.50463
H         13.60904        3.33891       -2.64416
H         12.42408        4.60889       -2.95868
H         11.03166        2.98379       -4.28635
H         12.19706        1.70677       -3.95113
H         13.96877        3.02001       -5.17779
H         12.77505        4.26731       -5.55552
H         11.33534        2.52245       -6.69653
H         12.57096        1.31403       -6.40798
H         12.81426        3.85687       -8.14354
H         12.55655        2.22496       -8.76456
H         15.39976        3.32338       -7.05368
H         16.11607        0.98036      -10.32154
H         15.67106       -1.77826       -9.03628
H         17.26211       -1.04969       -9.35925
H         16.17707       -1.43510      -10.69497
H         13.47147       -0.36766       -9.49419
H         14.12536       -0.28586      -11.13284
H         13.63602        1.19867      -10.32585
H         17.63040        1.82310       -8.75244
H         17.65806        0.29907       -7.82946
H         18.21898        2.01239       -6.41939
H         14.02615       -0.14083       -7.28203
H         15.09017        0.68644       -6.11281
H         15.65625       -0.75663       -6.95464
H         14.87311        3.20023      -10.51391
H         16.41747        3.56410       -9.73369
H         13.87000        5.30713       -9.49839
H         15.21177        5.58655      -10.58867
H         16.77076        5.84024       -8.60297
H         15.39239        5.67943       -7.51297
H         14.30676        7.67967       -8.58507
H         15.68773        7.84518       -9.66569
H         15.81690        8.07316       -6.58657
H         15.88706        9.42401       -7.73224
H         17.20680        8.24184       -7.67911
