110

C          1.85895       -2.31944       -0.25668
C          3.24409       -1.67758       -0.38968
C          3.20444       -0.50311       -1.35202
O          4.52204        0.17386       -1.41316
C          5.37162       -0.22514       -2.34210
O          5.19971       -1.07294       -3.20472
C          6.71179        0.51308       -2.23163
N          7.46601        0.23967       -3.49898
C          7.14364        1.27757       -4.56626
C          7.45645        0.80652       -5.98017
C          6.99926        1.84293       -7.01831
C          7.35470        1.44174       -8.45411
C          6.90972        2.47936       -9.48893
C          7.31013        2.12625      -10.92498
C          6.87928        3.18582      -11.94327
C          7.32885        2.89018      -13.37705
C          6.90544        3.97251      -14.37446
C          7.42584        3.74650      -15.79672
C          7.02541        4.85858      -16.77045
C          7.58307        4.67638      -18.18480
C          7.20433        5.81311      -19.13831
C          7.77995        5.65598      -20.54869
C          7.40948        6.81134      -21.48057
C          8.95388        0.03142       -3.29419
C          9.28471       -1.28539       -2.60109
C         10.79896       -1.54444       -2.60280
C         11.18307       -2.85707       -1.91161
C         12.68694       -3.14262       -1.97030
C         13.09275       -4.43682       -1.25828
C         14.59507       -4.72495       -1.34062
C         15.02187       -5.98643       -0.58399
C         16.52463       -6.26898       -0.67349
C         16.97241       -7.48486        0.14277
C         18.47841       -7.75219        0.06345
C         18.93858       -8.93734        0.91701
C         20.44623       -9.19565        0.84580
C         20.91067      -10.36938        1.71338
C         22.41799      -10.61946        1.63390
H          1.89587       -3.16998        0.43495
H          1.49203       -2.69145       -1.22371
H          1.12048       -1.60503        0.13335
H          3.96951       -2.42124       -0.75382
H          3.59551       -1.32619        0.59198
H          2.52898        0.28905       -1.00711
H          2.93266       -0.81003       -2.36996
H          7.27185        0.11415       -1.37628
H          6.58287        1.59262       -2.09506
H          7.03585       -0.65168       -3.83334
H          7.69979        2.18640       -4.29503
H          6.06942        1.48706       -4.46742
H          6.94496       -0.15263       -6.16925
H          8.53566        0.62920       -6.10654
H          7.46136        2.81837       -6.78955
H          5.90923        1.98882       -6.93393
H          6.89603        0.46576       -8.68765
H          8.44599        1.29492       -8.53012
H          7.34084        3.46107       -9.22583
H          5.81426        2.60360       -9.43395
H          6.87474        1.15004      -11.20053
H          8.40550        1.99655      -10.97501
H          7.28351        4.16641      -11.63591
H          5.78054        3.29069      -11.91774
H          6.92554        1.91383      -13.69776
H          8.42801        2.78641      -13.39808
H          7.26249        4.95345      -14.01386
H          5.80364        4.04114      -14.39346
H          7.05889        2.77612      -16.17461
H          8.52684        3.66499      -15.77109
H          7.36883        5.82885      -16.37001
H          5.92422        4.92448      -16.81725
H          7.22815        3.71639      -18.59919
H          8.68331        4.59591      -18.13416
H          7.54739        6.77294      -18.71279
H          6.10418        5.88732      -19.20068
H          7.42801        4.70414      -20.98096
H          8.87795        5.57145      -20.48384
H          6.31844        6.89941      -21.59154
H          7.83608        6.67520      -22.48389
H          7.77926        7.77092      -21.08917
H          9.32201        0.90404       -2.73617
H          9.40372        0.05419       -4.29415
H          8.77509       -2.11300       -3.12412
H          8.91687       -1.29078       -1.56228
H         11.31741       -0.70517       -2.10891
H         11.16052       -1.56047       -3.64504
H         10.63348       -3.69163       -2.38028
H         10.85475       -2.82594       -0.85837
H         13.23702       -2.29546       -1.52498
H         13.00580       -3.19122       -3.02607
H         12.53271       -5.28472       -1.68974
H         12.78949       -4.37946       -0.19825
H         15.15316       -3.85913       -0.94307
H         14.89097       -4.81525       -2.40045
H         14.46136       -6.85519       -0.97126
H         14.73293       -5.88760        0.47716
H         17.08152       -5.37928       -0.33038
H         16.80703       -6.41266       -1.73118
H         16.42300       -8.37960       -0.19896
H         16.68453       -7.33799        1.19875
H         19.02458       -6.84537        0.37801
H         18.76369       -7.92652       -0.98895
H         18.39714       -9.84688        0.60260
H         18.64918       -8.76143        1.96815
H         20.98748       -8.28261        1.15139
H         20.73656       -9.38138       -0.20350
H         20.36829      -11.28087        1.41027
H         20.62234      -10.18023        2.76132
H         22.72900      -10.85319        0.60481
H         22.72254      -11.46001        2.27256
H         22.98542       -9.73379        1.95656
