54

C          7.89229       -6.65792       -6.63046
C          8.47561       -5.24523       -6.55150
C          7.86219       -4.40181       -5.42690
C          8.42422       -2.97667       -5.36759
C          7.84940       -2.16892       -4.21646
O          8.39498       -0.83987       -4.26744
C          7.91578        0.00637       -3.24019
C          8.61189        1.35584       -3.39821
C          8.52945        1.89939       -4.82749
S          6.76546        2.24224       -5.31539
C          7.04633        3.91171       -5.27020
N          8.28221        4.28154       -5.02671
C          9.28925        3.22516       -5.05129
N          9.95865        3.28521       -6.36892
N         10.41072        4.63356       -6.53775
N         11.00085        2.34621       -6.50635
C          6.02225        5.00238       -5.51886
O          6.36425        6.16618       -5.51511
O          4.81951        4.48097       -5.71621
C          3.72114        5.42945       -6.01349
C          3.63659        5.71759       -7.50403
C          2.43328        6.61726       -7.82870
C          2.32220        6.92631       -9.32399
H          8.35788       -7.23819       -7.43812
H          6.80919       -6.63345       -6.82117
H          8.05066       -7.20944       -5.69207
H          8.32658       -4.72895       -7.51515
H          9.56733       -5.30276       -6.40461
H          8.03306       -4.90767       -4.46078
H          6.76683       -4.36093       -5.55847
H          8.20942       -2.45090       -6.31294
H          9.52123       -3.00871       -5.26515
H          8.10246       -2.63097       -3.24343
H          6.74533       -2.11415       -4.28277
H          8.13559       -0.40727       -2.23827
H          6.81299        0.11967       -3.30626
H          9.68415        1.23222       -3.17158
H          8.20448        2.07689       -2.67298
H          8.88474        1.13048       -5.52482
H          8.56207        5.26129       -5.14731
H         10.00856        3.40294       -4.22408
H         10.46089        4.80888       -7.54273
H         11.36631        4.73280       -6.17081
H         10.67874        1.50032       -6.97221
H         11.49469        2.12350       -5.63430
H          3.89608        6.33822       -5.42306
H          2.83310        4.90566       -5.64063
H          3.55225        4.76577       -8.05246
H          4.56499        6.20793       -7.83750
H          2.51677        7.55879       -7.26157
H          1.50756        6.12977       -7.48130
H          3.21701        7.44817       -9.69294
H          1.45586        7.56856       -9.52813
H          2.20200        6.00732       -9.91569
