53

C          0.40217       -0.93294       -0.33751
C          1.90048       -0.64830       -0.19223
C          2.31954       -0.63514        1.26518
O          3.78126       -0.44714        1.30166
C          4.42083       -0.84507        2.39584
O          3.94378       -1.27730        3.42407
C          5.94245       -0.70540        2.15695
C          6.73315       -1.10185        3.34881
N          6.94959       -2.34233        3.81531
C          6.43564       -3.62724        3.30820
C          7.11145       -4.08387        2.00931
C          6.51084       -5.43132        1.55154
S          6.23364       -5.56403       -0.23341
C          4.73477       -4.65243       -0.43794
S          3.79577       -4.06022        0.78533
N          4.38907       -4.51828       -1.78298
C          5.21030       -4.69550       -2.91109
N          4.56728       -4.45447       -4.01750
C          3.27085       -4.11770       -3.63717
C          3.13691       -4.13629       -2.27931
N          7.70390       -2.33203        4.94855
C          7.94027       -1.06351        5.17684
N          7.35602       -0.26794        4.22323
C          7.43895        1.19948        4.14602
C          8.65200        1.67123        3.31369
C          8.54932        3.12185        3.00153
C          9.31147        4.10771        3.49182
F         10.29518        3.89565        4.35826
F          9.18443        5.37831        3.17511
F          7.55564        3.44496        2.12923
H          0.11134       -0.92930       -1.39565
H         -0.20874       -0.17560        0.17425
H          0.13663       -1.91527        0.07943
H          2.15385        0.31674       -0.65612
H          2.48587       -1.41974       -0.71510
H          2.08723       -1.57826        1.77804
H          1.86676        0.19258        1.83058
H          6.17065        0.32610        1.85901
H          6.20174       -1.33610        1.29507
H          5.35264       -3.51926        3.15976
H          6.60938       -4.33340        4.12821
H          8.19712       -4.17528        2.15336
H          6.95281       -3.33434        1.22245
H          5.53923       -5.62563        2.02887
H          7.18053       -6.27174        1.77768
H          6.25973       -4.96099       -2.82314
H          2.51241       -3.88685       -4.37855
H          2.30421       -3.95685       -1.61189
H          8.51450       -0.68116        6.01479
H          7.49752        1.57513        5.17503
H          6.49850        1.56754        3.71815
H          8.69069        1.10847        2.36534
H          9.58766        1.46834        3.85135
