86

C          3.73740        2.19046        0.69192
C          4.71753        1.61440       -0.33316
C          4.83398        0.08744       -0.26919
C          5.79094       -0.50332       -1.30961
C          5.90261       -2.02940       -1.23667
C          6.84895       -2.62931       -2.28211
C          6.88895       -4.16004       -2.24161
C          7.85885       -4.74430       -3.27736
N          7.86616       -6.21599       -3.30126
C          7.09220       -6.94525       -4.12866
S          7.13414       -8.62762       -4.18650
S          6.04270       -5.94632       -5.18927
C          5.19346       -7.21137       -6.16505
C          3.98021       -7.82196       -5.45019
C          3.58654       -9.19078       -6.04463
C          3.23216      -10.22025       -4.96173
N          4.36487      -10.61565       -4.22481
O          2.19056       -9.76385       -4.06019
C          0.93366       -9.54762       -4.65359
C         -0.04133       -9.12340       -3.56488
C         -1.46054       -8.82341       -4.07237
O         -2.27755       -8.24254       -3.07197
N          0.49382      -10.81405       -5.29709
C          1.37557      -11.75474       -5.65537
N          0.95222      -12.97363       -6.05243
N          2.67851      -11.47310       -5.59895
C          8.78405       -6.87001       -2.35221
C         10.16849       -7.14314       -2.95015
C         11.09494       -7.84222       -1.95079
C         12.46966       -8.17354       -2.54044
C         13.40044       -8.89637       -1.56166
C         14.76125       -9.25356       -2.16824
C         15.70118       -9.97694       -1.19759
C         17.05035      -10.34174       -1.82246
H          3.68894        3.28630        0.63138
H          4.03284        1.92802        1.71900
H          2.71941        1.80371        0.53315
H          5.71530        2.05990       -0.18027
H          4.40718        1.91292       -1.34900
H          3.83196       -0.35909       -0.40182
H          5.16346       -0.21024        0.74224
H          6.79240       -0.05602       -1.18201
H          5.45687       -0.21043       -2.32064
H          4.89866       -2.47288       -1.36061
H          6.23990       -2.32455       -0.22769
H          7.86560       -2.22600       -2.13144
H          6.53815       -2.30027       -3.28911
H          5.88087       -4.56323       -2.42826
H          7.18100       -4.50069       -1.23467
H          8.88902       -4.42032       -3.06618
H          7.62133       -4.37355       -4.28552
H          5.94289       -7.98583       -6.38609
H          4.91776       -6.70334       -7.10042
H          3.13101       -7.12438       -5.48331
H          4.23115       -7.94504       -4.38873
H          4.42820       -9.62064       -6.60860
H          2.75929       -9.10543       -6.76349
H          4.13059      -10.94013       -3.28757
H          5.11207       -9.90569       -4.19081
H          0.99481       -8.77434       -5.44191
H          0.36584       -8.21024       -3.10881
H         -0.05670       -9.90263       -2.78586
H         -1.94378       -9.73390       -4.48734
H         -1.42461       -8.08380       -4.88705
H         -2.45197       -8.89593       -2.37572
H         -0.49806      -11.02806       -5.31349
H         -0.03289      -13.16058       -6.19070
H          1.60204      -13.62887       -6.46897
H          3.36642      -12.21641       -5.68801
H          8.31733       -7.81089       -2.03156
H          8.86254       -6.20838       -1.47635
H         10.62299       -6.19542       -3.28382
H         10.04544       -7.77037       -3.84645
H         10.61448       -8.77280       -1.60149
H         11.22149       -7.20979       -1.05437
H         12.95338       -7.24308       -2.88552
H         12.33484       -8.79571       -3.44227
H         12.90778       -9.81752       -1.20335
H         13.55111       -8.26755       -0.66657
H         15.25204       -8.33359       -2.53223
H         14.60640       -9.88441       -3.06168
H         15.20658      -10.89099       -0.82729
H         15.86452       -9.34236       -0.31009
H         16.92192      -11.00822       -2.68842
H         17.70310      -10.85493       -1.10310
H         17.58318       -9.44551       -2.17374
