81

C          6.11652       -1.81490       -0.11891
C          4.81814       -1.03911       -0.07488
O          5.11975        0.36161        0.13604
C          3.96394        1.17931        0.19590
C          4.44650        2.59742        0.50243
N          5.61288        2.87070       -0.43824
C          6.26359        4.24551       -0.29009
C          7.07684        4.33488        1.00220
C          7.97816        5.57865        1.03126
C          8.78669        5.69507        2.32848
C          9.60015        6.99102        2.41203
C         10.35637        7.14863        3.73474
C         11.08174        8.49137        3.86816
C         11.77680        8.67391        5.22055
C         12.43236       10.04656        5.39693
C         13.07651       10.24218        6.77240
C         13.69764       11.62773        6.97053
C         14.32003       11.82717        8.35549
C         14.93709       13.21349        8.55893
C         15.55379       13.41454        9.94668
C         16.17067       14.80131       10.13849
C          5.11957        5.25522       -0.43238
N          4.09106        4.98711        0.56648
C          3.40549        3.71376        0.33297
C          2.24458        3.49843        1.32002
C          1.18930        4.61874        1.41789
C          0.43433        5.01708        0.15071
C         -0.33615        3.88943       -0.60840
Br        -1.58753        2.92370        0.54114
F         -0.99008        4.38801       -1.66845
F          0.57830        2.99085       -1.09388
Br        -0.82586        6.45202        0.59037
F          1.33493        5.52674       -0.78497
H          5.90240       -2.87973       -0.27878
H          6.66808       -1.71643        0.82502
H          6.75718       -1.47285       -0.94269
H          4.17092       -1.38607        0.75003
H          4.25371       -1.14380       -1.01903
H          3.27747        0.84652        0.99415
H          3.40386        1.15047       -0.76221
H          4.87478        2.63698        1.51340
H          5.26322        2.77926       -1.40434
H          6.28280        2.09536       -0.30233
H          6.93739        4.33165       -1.15698
H          7.70691        3.43311        1.09706
H          6.39997        4.35590        1.86875
H          7.36142        6.48573        0.92121
H          8.66293        5.56199        0.16620
H          9.45868        4.82538        2.42559
H          8.09659        5.64774        3.18845
H          8.91965        7.85090        2.28206
H         10.31254        7.03660        1.57028
H         11.08162        6.32392        3.84586
H          9.64391        7.04136        4.57165
H         10.35412        9.30949        3.72306
H         11.82105        8.59535        3.05495
H         12.53686        7.88401        5.35257
H         11.03886        8.52127        6.02801
H         11.67348       10.83304        5.23744
H         13.19259       10.19592        4.61023
H         13.84972        9.46932        6.92775
H         12.31654       10.07051        7.55514
H         12.92522       12.39942        6.80432
H         14.46648       11.79805        6.19644
H         15.09304       11.05624        8.52231
H         13.55001       11.65473        9.12828
H         14.16523       13.98544        8.38956
H         15.71019       13.38592        7.78915
H         16.32243       12.64141       10.11656
H         14.77972       13.24515       10.71446
H         16.97295       14.98445        9.40814
H         16.60227       14.91595       11.14256
H         15.41792       15.59329       10.00748
H          4.73018        5.20930       -1.47423
H          5.51980        6.26613       -0.28543
H          3.41609        5.75019        0.57066
H          3.01364        3.65011       -0.70687
H          2.66678        3.39149        2.33216
H          1.74444        2.55066        1.08071
H          1.64043        5.54551        1.80185
H          0.44490        4.31982        2.16674
