94

C          6.34758       -4.40545       -3.45756
C          5.88937       -3.48715       -2.32256
C          6.60027       -3.77830       -0.99517
C          6.13616       -2.85286        0.13629
C          6.88141       -3.14245        1.45478
P          6.33028       -2.07804        2.81606
C          4.60896       -2.40085        3.24492
C          3.96197       -1.34328        4.16737
C          2.42969       -1.33457        4.00642
P          1.92179       -0.67727        2.38328
O          2.78413       -1.10731        1.24123
O          0.40127       -1.15597        2.34973
C         -0.47516       -0.84219        1.21778
C         -1.59850       -1.85559        1.18698
O          1.91068        0.91174        2.61964
C          2.40209        1.86495        1.62531
C          1.26139        2.47460        0.83328
C          7.42923       -2.11896        4.25802
C          8.87279       -1.67451        3.97804
O          9.48988       -1.57877        5.24358
C         10.92323       -1.50725        5.22272
C         11.45006       -0.10194        4.92437
O         12.85683       -0.19564        5.07859
C         13.61501        0.94674        4.91383
C         13.09700        2.20532        4.59016
C         13.96731        3.28853        4.44640
C         15.35364        3.16667        4.62349
C         15.84077        1.88781        4.94100
C         14.99352        0.79174        5.08762
C         16.26836        4.39109        4.47560
C         15.93184        5.50448        5.52390
C         15.93829        5.30186        7.07004
C         17.28889        4.80666        7.62359
C         15.66528        6.70092        7.66625
C         14.82381        4.35246        7.55514
C         17.76261        4.01208        4.50763
C         16.01731        5.02268        3.08107
H          5.82139       -4.17216       -4.39225
H          6.15289       -5.46198       -3.22218
H          7.42553       -4.30041       -3.64861
H          4.80066       -3.58643       -2.17910
H          6.06386       -2.43496       -2.60304
H          7.69090       -3.67626       -1.13075
H          6.42386       -4.82832       -0.70466
H          5.04923       -2.95884        0.27737
H          6.30386       -1.80228       -0.15295
H          7.96606       -2.98817        1.33964
H          6.73923       -4.18444        1.78634
H          6.37070       -0.75058        2.32604
H          4.54774       -3.41618        3.66617
H          4.08198       -2.39050        2.27268
H          4.35312       -0.33874        3.93601
H          4.22115       -1.54387        5.21628
H          1.96215       -0.71464        4.78340
H          2.01378       -2.34788        4.10426
H          0.11884       -0.87241        0.29198
H         -0.85430        0.17937        1.36859
H         -1.21244       -2.86927        1.01956
H         -2.28840       -1.61070        0.36767
H         -2.16610       -1.84452        2.12629
H          3.12108        1.34960        0.97287
H          2.93049        2.62833        2.21213
H          0.77476        1.73239        0.18700
H          1.64960        3.27564        0.18817
H          0.50768        2.91207        1.50128
H          7.40747       -3.13752        4.67532
H          6.98533       -1.44857        5.01156
H          8.87873       -0.70550        3.43886
H          9.39693       -2.41392        3.34185
H         11.33442       -2.23267        4.49833
H         11.24722       -1.80707        6.22764
H         11.01119        0.61909        5.63757
H         11.19094        0.22340        3.89839
H         12.02734        2.36040        4.45193
H         13.53324        4.25983        4.20569
H         16.90843        1.73169        5.08858
H         15.38819       -0.19312        5.33892
H         14.93014        5.89249        5.27065
H         16.62549        6.33537        5.30644
H         18.13141        5.40036        7.24024
H         17.47229        3.75188        7.38001
H         17.29707        4.88975        8.72054
H         16.45778        7.41368        7.39387
H         15.61818        6.65376        8.76397
H         14.70880        7.10951        7.30667
H         14.99315        3.31468        7.24297
H         13.83927        4.66037        7.17298
H         14.77451        4.36630        8.65442
H         18.06979        3.50175        5.42629
H         18.37349        4.92138        4.42275
H         18.01865        3.36204        3.65838
H         14.98361        5.37497        2.96491
H         16.21741        4.29109        2.28559
H         16.68134        5.88561        2.92743
