58

C          0.76066        0.82893       -1.15032
C          2.25816        0.65054       -0.88746
C          2.71637        1.24989        0.44655
C          4.21393        1.07415        0.71807
C          4.66995        1.67586        2.05110
C          6.16814        1.50272        2.32195
C          6.61970        2.11053        3.65357
C          8.11941        1.94388        3.92383
C          8.56073        2.57450        5.25203
C         10.05554        2.41558        5.49016
O         10.51076        3.10942        6.69201
C         10.29668        2.43089        7.90576
N         11.30018        1.38734        8.16809
C         12.62672        1.64444        8.22259
N         13.07208        2.82970        7.78216
C         14.32998        3.49913        8.12520
C         15.39210        3.50752        6.99732
C         16.23373        2.28618        6.92539
C         17.56598        2.20237        7.02628
F         18.34731        3.25530        7.21208
F         18.24834        1.07616        6.94743
F         15.55420        1.10110        6.73704
N         13.46963        0.71679        8.72533
C         13.07969       -0.39122        9.50904
C         13.82043       -1.49497        9.63684
H          0.46460        0.38697       -2.11145
H          0.48351        1.89346       -1.17570
H          0.15689        0.35040       -0.36487
H          2.83458        1.11055       -1.70783
H          2.51058       -0.42327       -0.90781
H          2.13958        0.79126        1.26933
H          2.46522        2.32530        0.46729
H          4.79038        1.53223       -0.10491
H          4.46410       -0.00128        0.69847
H          4.09467        1.21728        2.87454
H          4.41859        2.75094        2.07067
H          6.74341        1.96065        1.49828
H          6.42069        0.42785        2.30557
H          6.04692        1.65217        4.47866
H          6.36625        3.18467        3.66969
H          8.69203        2.39718        3.09643
H          8.37522        0.86985        3.91834
H          7.98851        2.11753        6.07744
H          8.31892        3.64891        5.25836
H         10.63122        2.87960        4.67763
H         10.35383        1.35330        5.54238
H          9.31375        1.94068        7.95644
H         10.36328        3.19174        8.69607
H         11.01852        0.41249        8.13813
H         12.39646        3.32669        7.18920
H         14.73357        3.04937        9.04250
H         14.06944        4.53945        8.36364
H         16.05945        4.36435        7.16187
H         14.89215        3.68371        6.02983
H         14.42115        0.72636        8.35551
H         12.14293       -0.25071       10.04982
H         14.76403       -1.63456        9.10778
H         13.49395       -2.29119       10.30105
