32

C          0.79019        0.09539        0.32145
C          2.25779       -0.13643       -0.02356
S          3.10541        1.49665       -0.04514
C          4.64933        1.02070       -0.63580
N          5.09884       -0.16151       -1.00429
N          6.39769        0.03154       -1.43204
C          6.66189        1.29721       -1.29368
O          5.60110        2.01105       -0.78184
C          7.95468        1.95373       -1.55254
C          8.48657        2.86850       -0.42294
O          9.27312        3.85342       -1.10416
C          8.50347        4.25000       -2.18385
N          7.98357        2.93497       -2.77921
C          6.73490        3.10833       -3.60717
C          6.34258        1.87574       -4.38312
C          7.11903        1.09318       -5.13927
Br         8.97966        1.39854       -5.40370
Br         4.48383        1.49344       -4.33167
H          0.27684       -0.87449        0.35673
H          0.28675        0.71584       -0.43181
H          0.66840        0.57147        1.30369
H          2.38694       -0.58923       -1.01400
H          2.76696       -0.76256        0.71933
H          8.67011        1.16090       -1.80115
H          9.13722        2.32959        0.27276
H          7.65694        3.34144        0.12824
H          9.12104        4.78239       -2.91691
H          7.61170        4.84002       -1.90178
H          8.70585        2.56010       -3.42985
H          6.94560        3.93953       -4.30003
H          5.92665        3.41805       -2.93624
H          6.76146        0.21919       -5.67723
