96

C          1.05355        1.67045        0.09560
C          2.57233        1.57663       -0.07010
C          3.00464        1.18119       -1.48636
C          4.52334        1.09130       -1.66585
C          4.94851        0.64950       -3.06976
C          6.46646        0.55840       -3.25535
C          6.88131        0.09530       -4.65574
C          8.39816       -0.00012       -4.84726
C          8.80098       -0.47784       -6.24697
C         10.32113       -0.57663       -6.43378
C         10.68975       -1.06601       -7.82069
O         12.13974       -1.13724       -7.92033
C         12.57657       -1.60891       -9.14627
N         14.08414       -1.62677       -9.06708
C         14.57258       -2.70402       -8.10668
C         16.05943       -2.59713       -7.78229
C         16.53735       -1.23976       -7.24687
C         18.04175       -1.24905       -6.94285
C         18.59899        0.07837       -6.41751
C         20.12171        0.03631       -6.23930
C         20.73337        1.31736       -5.66245
C         22.26239        1.25327       -5.56885
C         22.91062        2.50059       -4.95972
C         24.44035        2.42017       -4.90377
C         25.10584        3.64853       -4.27329
C         26.63367        3.55687       -4.23569
C         14.71423       -1.67896      -10.44758
C         14.80273       -0.29900      -11.08999
C         15.47418       -0.35359      -12.46952
C         15.56750        1.02406      -13.13534
C         16.24156        0.98825      -14.51183
C         16.29622        2.36123      -15.18633
H          0.77584        1.94087        1.12364
H          0.56564        0.71244       -0.13864
H          0.62466        2.43059       -0.57445
H          2.97679        0.84327        0.64833
H          3.03368        2.54313        0.19505
H          2.59390        1.90869       -2.20896
H          2.54793        0.20980       -1.74652
H          4.93644        0.38632       -0.92265
H          4.97796        2.07103       -1.43613
H          4.53205        1.35015       -3.81492
H          4.49503       -0.33206       -3.29412
H          6.88554       -0.13355       -2.50360
H          6.92109        1.54258       -3.04571
H          6.46141        0.78619       -5.40784
H          6.42535       -0.88882       -4.86307
H          8.82018       -0.68647       -4.09251
H          8.85626        0.98491       -4.65137
H          8.37999        0.20893       -7.00133
H          8.34109       -1.46242       -6.44053
H         10.74735       -1.26548       -5.68682
H         10.78729        0.40720       -6.26448
H         10.31509       -0.38030       -8.60233
H         10.27263       -2.07108       -8.01387
H         12.29515       -0.94825       -9.98662
H         12.25040       -2.64385       -9.36607
H         14.34635       -0.72300       -8.64153
H         14.32525       -3.66619       -8.57643
H         13.95477       -2.58055       -7.20815
H         16.66901       -2.88997       -8.65189
H         16.25239       -3.37411       -7.02570
H         15.96850       -0.97070       -6.34042
H         16.34419       -0.43606       -7.98393
H         18.58653       -1.53123       -7.86097
H         18.25305       -2.04774       -6.21161
H         18.11716        0.32799       -5.45658
H         18.33401        0.89437       -7.11316
H         20.58973       -0.17978       -7.21598
H         20.38591       -0.81408       -5.58667
H         20.30978        1.50852       -4.66109
H         20.44034        2.18076       -6.28547
H         22.67826        1.08431       -6.57797
H         22.55195        0.36885       -4.97436
H         22.51468        2.65879       -3.94111
H         22.61271        3.39116       -5.54089
H         24.83463        2.27771       -5.92576
H         24.73721        1.51779       -4.34020
H         24.71928        3.78432       -3.24898
H         24.80439        4.55145       -4.83100
H         26.96786        2.68235       -3.65754
H         27.08043        4.44860       -3.77521
H         27.05339        3.46100       -5.24834
H         14.11585       -2.38426      -11.04185
H         15.71391       -2.11113      -10.32314
H         15.38105        0.36973      -10.42827
H         13.80004        0.14744      -11.19367
H         14.91119       -1.04075      -13.12386
H         16.48503       -0.78428      -12.36787
H         16.12115        1.71392      -12.47477
H         14.55353        1.44885      -13.23681
H         15.70278        0.27831      -15.16156
H         17.26319        0.58656      -14.40481
H         15.28668        2.76661      -15.34973
H         16.79196        2.30486      -16.16411
H         16.85067        3.08788      -14.57447
