82

C         11.40911       16.79646        6.10109
C         10.56680       15.57829        6.48776
C         11.24575       14.24125        6.16765
C         10.41048       13.02073        6.56689
C         11.09179       11.67854        6.27763
C         10.23894       10.47118        6.68085
C         10.91823        9.11638        6.45119
C         10.02657        7.93198        6.83778
C         10.69226        6.56060        6.67697
C          9.75745        5.41395        7.08136
C         10.36201        4.02559        6.99633
O         11.46494        3.94300        7.94572
C         11.91940        2.65590        8.15884
N         13.05429        2.76842        9.14752
C         14.26506        3.42922        8.53763
C         15.51227        3.28087        9.43027
C         16.79109        3.45189        8.58117
F         16.80354        2.58359        7.54266
F         16.84681        4.71655        8.07421
F         17.89135        3.25137        9.31952
O         15.51544        4.16038       10.53944
C         12.59172        3.33306       10.47097
C         12.61627        2.15070       11.44165
O         13.06342        1.06733       11.07406
O         12.13026        2.46768       12.61846
C         12.13749        1.42801       13.68070
C         13.37866        1.54859       14.54596
C         13.33111        0.54940       15.71217
C         14.54904        0.64641       16.63815
C         14.49737       -0.35036       17.80093
C         15.70558       -0.26516       18.73910
C         15.64953       -1.26764       19.89779
C         16.86348       -1.19023       20.82677
H         10.89032       17.73578        6.33720
H         11.63284       16.80283        5.02381
H         12.37019       16.80427        6.63700
H          9.59312       15.62311        5.97081
H         10.33618       15.61746        7.56617
H         12.22467       14.19855        6.67797
H         11.46802       14.19524        5.08664
H          9.43936       13.05652        6.04240
H         10.17188       13.08034        7.64371
H         12.05987       11.63879        6.80828
H         11.33429       11.61352        5.20235
H          9.28568       10.49832        6.12444
H          9.96562       10.56055        7.74723
H         11.85666        9.07587        7.03281
H         11.21445        9.02532        5.39161
H          9.10377        7.96003        6.23267
H          9.70034        8.05178        7.88600
H         11.60938        6.52703        7.28895
H         11.01433        6.42090        5.63045
H          8.86636        5.41383        6.43204
H          9.38484        5.57234        8.10704
H         10.75496        3.80808        5.98717
H          9.61534        3.25450        7.25586
H         12.32811        2.16994        7.25264
H         11.16081        1.99129        8.61723
H         13.30467        1.78214        9.44250
H         14.02139        4.48233        8.35191
H         14.42793        2.93039        7.57321
H         15.55962        2.26023        9.84591
H         15.82988        5.03831       10.25721
H         11.59589        3.77400       10.35687
H         13.29220        4.10474       10.81025
H         12.05745        0.44832       13.19324
H         11.22001        1.64204       14.24175
H         13.45176        2.57676       14.93373
H         14.27560        1.36538       13.93275
H         13.25655       -0.47679       15.31392
H         12.41289        0.71666       16.30072
H         14.62358        1.67278       17.03717
H         15.46941        0.48053       16.05172
H         14.41884       -1.37548       17.39838
H         13.57334       -0.18336       18.38182
H         15.77905        0.75844       19.14702
H         16.63227       -0.42667       18.16068
H         15.56250       -2.28856       19.48900
H         14.72791       -1.09676       20.47919
H         17.79766       -1.39637       20.28334
H         16.78933       -1.91839       21.64589
H         16.95847       -0.19160       21.27875
