92

C          0.61282        0.35794        1.69859
C          2.11667        0.44639        1.42709
C          2.96088        0.54458        2.70265
C          4.46442        0.66782        2.43728
C          5.30839        0.78224        3.71096
C          6.80565        0.96095        3.43898
C          7.64947        1.09879        4.71012
C          9.13896        1.33091        4.43522
C          9.97426        1.48176        5.71019
C         11.46061        1.74867        5.44409
C         12.27223        1.88531        6.73877
C         13.73684        2.18763        6.48183
O         14.40617        2.26592        7.76837
C         15.74953        2.61839        7.67328
N         16.18465        2.94329        9.03813
N         16.08913        4.21328        9.51107
C         16.42101        4.13957       10.78572
N         16.71993        2.82029       11.12036
C         16.55141        2.09970        9.99823
C         17.11518        2.27175       12.43603
C         15.95257        2.23583       13.43458
C         16.37542        1.48203       14.71007
S         15.55322        2.08311       16.20424
C         16.56187        3.48348       16.60541
S         17.95434        3.92366       15.83753
N         16.05127        4.17208       17.70370
C         14.76816        4.08702       18.26591
C         14.78964        4.91114       19.35328
N         16.04244        5.49590       19.50951
C         16.77056        5.05497       18.52419
C         16.46432        5.30040       11.71986
C         16.09767        6.59979       10.99070
C         16.12545        7.86939       11.84854
C         14.77952        8.32324       12.54195
C         14.08922        7.44069       13.65486
C         14.80274        7.10836       15.02286
C         15.30341        8.24788       15.99793
C         14.25020        9.27244       16.56347
F         13.20757        8.62599       17.11458
F         14.85242       10.01522       17.50391
F         13.79988       10.08574       15.59323
F         15.83080        7.59312       17.06369
F         16.29131        8.94517       15.38735
F         13.92896        6.32639       15.70922
F         15.89933        6.34493       14.73750
F         12.90592        8.02728       13.94089
F         13.81959        6.21695       13.08388
F         14.96778        9.56173       13.05004
F         13.84901        8.40522       11.54245
F         17.11667        7.81256       12.79125
F         16.42465        8.91590       11.01522
H          0.03784        0.28518        0.76521
H          0.25258        1.24397        2.24246
H          0.36769       -0.52447        2.30855
H          2.32438        1.32146        0.78818
H          2.43949       -0.43380        0.84543
H          2.77025       -0.34047        3.33551
H          2.62375        1.41440        3.29435
H          4.64889        1.55066        1.79976
H          4.80550       -0.20294        1.84986
H          5.15255       -0.11468        4.33608
H          4.94499        1.63442        4.31212
H          6.95444        1.85364        2.80617
H          7.17533        0.10661        2.84515
H          7.52787        0.19365        5.33092
H          7.25863        1.93447        5.31701
H          9.25689        2.23490        3.81236
H          9.53643        0.49525        3.83303
H          9.87256        0.57001        6.32442
H          9.56297        2.30488        6.32030
H         11.56355        2.66777        4.84188
H         11.87656        0.93154        4.82989
H         12.20046        0.95512        7.32493
H         11.85101        2.68853        7.36405
H         13.86293        3.15104        5.95478
H         14.21100        1.39602        5.87305
H         15.92371        3.52628        7.07018
H         16.39392        1.79730        7.30384
H         16.68715        1.02815        9.89556
H         17.93628        2.88777       12.82907
H         17.51371        1.26643       12.24509
H         15.07221        1.75921       12.97972
H         15.66732        3.26212       13.69922
H         17.45488        1.58615       14.89834
H         16.12432        0.41406       14.65677
H         13.98008        3.49419       17.81860
H         13.97593        5.13229       20.03683
H         17.80998        5.28653       18.31763
H         17.46755        5.37403       12.16924
H         15.77690        5.10374       12.55325
H         15.11092        6.51928       10.51724
H         16.81874        6.78584       10.18315
