67

Br         0.82190        0.84253       -0.87457
C          2.67704        0.52946       -0.33678
C          3.59593        1.58477       -0.93825
C          5.05259        1.35198       -0.51617
N          5.92165        2.40081       -1.08003
C          7.08414        2.21137       -1.76331
N          7.28376        2.97052       -2.86326
C          8.51953        3.03379       -3.66007
C          9.68393        2.37403       -2.91919
C          9.16000        1.07752       -2.28728
N          8.01829        1.33177       -1.37463
C          8.10206        0.79360       -0.00574
C          8.92479        1.69624        0.94268
O          8.74209        1.34092        2.29141
C          9.50098        0.19634        2.73167
C          9.42445        0.11862        4.24815
C          8.00775       -0.07917        4.79835
C          7.96064       -0.13463        6.32882
C          6.54136       -0.28672        6.87929
C         10.37318        3.32922       -1.92868
C         11.68743        2.72801       -1.39405
O         12.05738        1.61487       -1.79107
N         12.41821        3.44899       -0.49720
C         12.08475        4.79654       -0.02414
C         11.80909        4.87538        1.47949
C         13.70764        2.87403       -0.06224
C         13.58100        1.78093        1.00066
H          2.92246       -0.48089       -0.68368
H          2.68015        0.54977        0.75881
H          3.26823        2.58273       -0.60419
H          3.51671        1.56269       -2.03565
H          5.39912        0.37649       -0.88481
H          5.12720        1.34798        0.58361
H          5.45126        3.27941       -1.27946
H          6.45328        3.38418       -3.27483
H          8.73344        4.08906       -3.88410
H          8.33671        2.51940       -4.61603
H         10.43467        2.07548       -3.66385
H          9.95763        0.59847       -1.71195
H          8.83637        0.37528       -3.07162
H          8.54035       -0.20988       -0.08477
H          7.10590        0.68006        0.42891
H          8.55688        2.73076        0.84529
H          9.99537        1.67900        0.66447
H         10.54909        0.30774        2.39613
H          9.09323       -0.72825        2.27941
H          9.86465        1.03707        4.66949
H         10.07117       -0.71471        4.56923
H          7.58127       -1.01095        4.38510
H          7.36234        0.74124        4.44523
H          8.41674        0.78344        6.73562
H          8.58837       -0.96867        6.68436
H          5.90231        0.55214        6.56497
H          6.53681       -0.31331        7.97706
H          6.07082       -1.21485        6.52238
H          9.70445        3.60147       -1.09718
H         10.59718        4.27091       -2.45480
H         11.21527        5.16395       -0.58056
H         12.92365        5.46479       -0.28180
H         10.96800        4.23059        1.76980
H         11.56355        5.90897        1.75832
H         12.68626        4.57540        2.06743
H         14.31641        3.70900        0.31182
H         14.20494        2.46378       -0.95188
H         13.09938        2.15352        1.91457
H         14.58013        1.41307        1.27102
H         13.00496        0.93203        0.61218
