44

C          4.18153       -0.78115       -1.18018
C          4.44093       -0.62583        0.31946
C          3.19104       -0.86932        1.19952
C          2.64522       -2.26857        1.04572
C          3.42341       -3.40033        1.42576
C          2.95761       -4.68639        1.28587
C          1.66063       -4.92853        0.75101
C          0.86090       -3.79342        0.37436
C          1.37742       -2.48997        0.53155
C         -0.43965       -4.03646       -0.13576
C         -0.90858       -5.31189       -0.24651
N         -0.12315       -6.39338        0.10881
C          1.13923       -6.23515        0.58711
C          1.93470       -7.46448        0.91563
C          1.68575       -7.94315        2.35592
O          0.59352       -7.92864        2.88564
O          2.82000       -8.39376        2.90557
C          2.68969       -8.94766        4.24794
C         -0.71265       -7.71652       -0.00561
C         -1.24667       -8.15204       -1.14376
C          3.49995       -0.54723        2.68173
O          2.37799       -0.72666        3.53875
H          5.08450       -0.54654       -1.75814
H          3.38578       -0.10229       -1.52006
H          3.87968       -1.80573       -1.44094
H          4.80028        0.39348        0.53019
H          5.25349       -1.30146        0.63410
H          2.40391       -0.17005        0.86773
H          4.41894       -3.24705        1.84401
H          3.58801       -5.51563        1.60301
H          0.75554       -1.64185        0.23942
H         -1.08642       -3.20746       -0.42149
H         -1.91029       -5.56131       -0.58433
H          3.00272       -7.29042        0.75586
H          1.64450       -8.29034        0.24804
H          3.69192       -9.29622        4.50875
H          1.97363       -9.77766        4.24301
H          2.34992       -8.16984        4.94161
H         -0.69971       -8.27511        0.93006
H         -1.23269       -7.56854       -2.06513
H         -1.71422       -9.13474       -1.17535
H          3.89857        0.47927        2.74051
H          4.28618       -1.21898        3.06083
H          1.84165        0.08043        3.52847
