90

C          0.70361       -0.16920       -0.31562
C          2.23320       -0.11264       -0.28297
C          2.80548        0.02129        1.13253
C          4.33593        0.07139        1.17915
C          4.90090        0.20000        2.59735
C          6.43128        0.24171        2.65261
C          6.98623        0.36152        4.07531
C          8.51614        0.39482        4.14335
C          9.05777        0.51369        5.57137
C         10.58687        0.54787        5.65010
C         11.12051        0.68323        7.07965
C         12.64971        0.72311        7.15869
C         13.17797        0.89618        8.58617
C         14.70861        0.90129        8.66838
C         15.21174        1.11254       10.10012
C         16.73510        0.96858       10.18749
N         17.24908        1.14921       11.56537
C         17.53130        2.30608       12.09787
S         18.05538        2.34116       13.71097
C         17.67689        0.55279       13.89213
C         17.54827       -0.04195       12.45587
C         18.84255       -0.70693       12.01120
C         19.77945       -0.15655       11.24020
C         16.42200       -1.02455       12.38227
N         16.38063       -2.11721       11.68143
N         15.10295       -2.63019       11.80396
C         14.44662       -1.80797       12.59470
O         15.22990       -0.74744       13.01166
S         12.81589       -2.00523       13.11758
C         12.39372       -0.34249       13.77464
C         10.91363       -0.36549       14.16515
C         10.42862        0.99942       14.67197
C          8.95167        0.98536       15.08326
C          8.42589        2.35494       15.52538
C          6.94875        2.33504       15.93694
C          6.41305        3.71218       16.33635
H          0.32447       -0.26379       -1.34248
H          0.26096        0.73955        0.11916
H          0.32353       -1.02722        0.25888
H          2.58449        0.73364       -0.89745
H          2.64616       -1.01962       -0.75632
H          2.44979       -0.82311        1.74944
H          2.39577        0.93142        1.60577
H          4.69302        0.91728        0.56555
H          4.74541       -0.83798        0.70484
H          4.53837       -0.64365        3.21094
H          4.49443        1.11145        3.07041
H          6.79670        1.08824        2.04492
H          6.83881       -0.66787        2.17716
H          6.61406       -0.48233        4.68281
H          6.58126        1.27361        4.54846
H          8.89154        1.23911        3.53874
H          8.92339       -0.51720        3.67254
H          8.68028       -0.33018        6.17543
H          8.64875        1.42616        6.04032
H         10.96550        1.38639        5.03971
H         10.99800       -0.36851        5.19170
H         10.74563       -0.15614        7.69140
H         10.70720        1.59959        7.53703
H         13.02776        1.54637        6.52803
H         13.06308       -0.20469        6.72677
H         12.78679        0.08366        9.22342
H         12.78339        1.83644        9.00980
H         15.11607        1.68764        8.01057
H         15.09570       -0.05688        8.28267
H         14.73085        0.37945       10.76330
H         14.91729        2.11084       10.46504
H         17.24133        1.70713        9.54985
H         17.05596       -0.03118        9.86562
H         17.44220        3.22708       11.51833
H         16.74254        0.47470       14.46074
H         18.49101        0.07225       14.44510
H         18.97016       -1.71483       12.41147
H         19.68727        0.83617       10.79638
H         20.69329       -0.70322       11.01222
H         12.58704        0.39930       12.98672
H         13.03289       -0.12688       14.64126
H         10.75030       -1.13001       14.94231
H         10.30897       -0.66902       13.29496
H         10.58165        1.75671       13.88320
H         11.04667        1.31766       15.52923
H          8.80859        0.25585       15.89901
H          8.34315        0.61814       14.23876
H          8.56443        3.08110       14.70464
H          9.03441        2.73024       16.36712
H          6.81551        1.62878       16.77362
H          6.34725        1.93263       15.10443
H          6.97123        4.12865       17.18789
H          5.35515        3.66145       16.62692
H          6.49399        4.42859       15.50530
