57

C          6.17411        1.78097       -7.84242
C          5.81966        2.80386       -6.76034
C          6.54040        2.55107       -5.43095
C          6.16202        3.54577       -4.32897
C          6.87926        3.27629       -3.00083
C          6.44517        4.22253       -1.87740
C          7.07655        3.94905       -0.50614
N          8.53412        4.18560       -0.42621
C          9.42720        3.17487       -0.46222
N         10.72640        3.38568       -0.13978
C         11.63227        2.25776       -0.30575
O         11.02299        1.06745        0.17559
C          9.91201        0.73093       -0.62513
N          9.06507        1.93465       -0.82393
C          9.15126       -0.40383        0.06833
C          7.67971       -0.53681       -0.37028
O          7.52281       -0.22746       -1.77496
C          7.08445       -1.89101       -0.01608
C          8.97936        5.58178       -0.33301
C          8.80640        6.25549        1.05523
C          9.48047        5.52012        2.20808
O         10.88739        5.38835        1.89279
O          9.25031        7.59927        0.94877
H          5.64461        1.99060       -8.78117
H          5.90442        0.76062       -7.53135
H          7.25215        1.78622       -8.06206
H          4.73036        2.79609       -6.58783
H          6.06154        3.81915       -7.11670
H          7.63225        2.58261       -5.59654
H          6.31598        1.52623       -5.08498
H          5.07159        3.51065       -4.16365
H          6.38536        4.57355       -4.66326
H          7.96865        3.35819       -3.16569
H          6.67665        2.23076       -2.70219
H          5.35449        4.15103       -1.73695
H          6.63494        5.26811       -2.17092
H          6.88455        2.91585       -0.18382
H          6.61069        4.59905        0.24864
H         10.94061        4.08154        0.59197
H         12.53221        2.43404        0.29168
H         11.90582        2.14645       -1.36976
H         10.24704        0.41231       -1.63000
H          8.25361        1.78258       -1.42200
H          9.19109       -0.23206        1.15440
H          9.70151       -1.33545       -0.13409
H          7.09549        0.25035        0.13455
H          7.69296       -1.02872       -2.29638
H          7.61337       -2.70139       -0.54244
H          6.02287       -1.92966       -0.29081
H          7.16838       -2.08951        1.06127
H          8.40524        6.17589       -1.05674
H         10.03074        5.63643       -0.64332
H          7.73348        6.31944        1.29898
H          9.02751        4.52465        2.36131
H          9.34788        6.11151        3.12496
H         11.39537        5.33668        2.71680
H         10.22339        7.59411        0.93244
