90

C         14.58966       -1.86740      -10.99236
C         14.27645       -1.52458       -9.53348
C         14.69519       -2.62145       -8.54819
C         14.37900       -2.29308       -7.08519
C         14.77075       -3.40925       -6.11194
C         14.45086       -3.10021       -4.64544
C         14.81441       -4.24677       -3.69704
C         14.49349       -3.97283       -2.22406
C         14.85296       -5.14714       -1.30834
C         14.55327       -4.90631        0.17472
C         14.89165       -6.11490        1.05316
C         14.62281       -5.90345        2.54614
C         14.97566       -7.12978        3.39386
C         14.78782       -6.91474        4.90065
C         15.27596       -8.07391        5.78180
C         16.77906       -8.39020        5.69805
N         17.63162       -7.24914        6.09387
C         18.02760       -6.98919        7.32547
C         17.83050       -7.90112        8.49660
C         18.93785       -8.97371        8.57217
O         20.16805       -8.29393        8.63884
C         21.29011       -9.13983        8.92915
C         22.47128       -8.27029        9.29984
O         22.23406       -7.70820       10.57517
C         23.29472       -6.86775       11.02420
C         22.94253       -6.40240       12.43003
O         23.94842       -5.49528       12.83974
C         23.77525       -5.05842       14.18082
S         18.87549       -5.51261        7.51456
C         18.49187       -5.01996        5.79123
C         18.17784       -6.32623        5.05429
C         19.40717       -6.97656        4.37596
C         19.91741       -6.14219        3.23455
C         21.10393       -5.52918        3.22703
H         14.27516       -1.06402      -11.67266
H         14.07463       -2.78797      -11.30560
H         15.66795       -2.02674      -11.14313
H         13.19533       -1.33403       -9.42377
H         14.77760       -0.58044       -9.26032
H         15.77797       -2.81256       -8.65416
H         14.19578       -3.56713       -8.82464
H         13.29932       -2.08438       -6.98381
H         14.89424       -1.35892       -6.79976
H         15.85046       -3.61909       -6.21228
H         14.25606       -4.34147       -6.40490
H         13.37532       -2.87048       -4.54620
H         14.98464       -2.18373       -4.33756
H         15.89068       -4.47414       -3.79732
H         14.28451       -5.16132       -4.01727
H         13.41885       -3.74233       -2.11884
H         15.03073       -3.06706       -1.89156
H         15.92522       -5.38494       -1.42763
H         14.30819       -6.04671       -1.64506
H         13.48656       -4.65127        0.29881
H         15.11784       -4.02450        0.52648
H         15.95557       -6.37992        0.91106
H         14.31768       -6.98993        0.70207
H         13.56287       -5.64095        2.70187
H         15.20171       -5.03174        2.90336
H         16.01926       -7.41681        3.16669
H         14.36620       -7.99115        3.07244
H         13.71934       -6.75649        5.11200
H         15.27817       -5.97539        5.21335
H         14.75262       -9.00298        5.50335
H         15.01194       -7.87635        6.83274
H         17.07051       -8.65795        4.67432
H         17.02848       -9.24952        6.33126
H         16.84698       -8.38715        8.44356
H         17.85929       -7.30551        9.41786
H         18.89355       -9.64897        7.69325
H         18.76066       -9.58763        9.47500
H         21.53791       -9.75928        8.04713
H         21.04574       -9.80950        9.77315
H         22.61090       -7.47883        8.53541
H         23.38640       -8.89560        9.30240
H         23.41387       -5.99340       10.35623
H         24.25349       -7.41930       11.03536
H         22.88824       -7.27338       13.11235
H         21.94469       -5.91912       12.42516
H         24.59342       -4.36241       14.39865
H         23.82105       -5.90491       14.89006
H         22.81012       -4.53617       14.31571
H         19.35936       -4.50950        5.35657
H         17.63959       -4.32926        5.81980
H         17.39318       -6.15188        4.30668
H         19.10900       -7.97017        4.00317
H         20.19736       -7.13422        5.12702
H         19.25536       -6.05016        2.36712
H         21.79609       -5.60901        4.06870
H         21.43798       -4.94312        2.37118
