67

C          2.22863      -12.17530        5.79906
C          3.70879      -11.79534        5.71357
C          3.99888      -10.35947        6.16674
C          5.48055       -9.98197        6.07522
C          5.78140       -8.52947        6.46114
C          7.26848       -8.17832        6.35018
C          7.58865       -6.70695        6.63704
C          9.08250       -6.38979        6.48664
C          9.39599       -4.91103        6.69522
O         10.80167       -4.59885        6.57575
C         11.26051       -4.55445        5.24054
C         12.77019       -4.32839        5.27010
C         13.55736       -5.37006        6.09742
C         13.93445       -4.66248        7.42520
C         13.71340       -3.23407        7.09548
N         13.11333       -3.04167        5.96895
C         12.72221       -1.70847        5.47300
C         11.50386       -1.10553        6.19892
C         11.64395        0.42142        6.25821
O         12.82753        0.69400        7.00657
O         10.33897       -1.49613        5.48381
C         15.33345       -5.03642        7.96563
C         15.91795       -4.21168        9.13073
C         15.09540       -4.05689       10.41005
C         14.61377       -5.36546       11.11942
Br        16.07450       -6.61042       11.48676
F         13.96641       -5.07951       12.26024
F         13.71486       -5.99364       10.29944
Br        16.11668       -2.97858       11.68868
F         13.92364       -3.35367       10.12171
H          2.05742      -13.20567        5.45876
H          1.60995      -11.51324        5.17481
H          1.85423      -12.09968        6.83072
H          4.06255      -11.92323        4.67627
H          4.30533      -12.49541        6.32289
H          3.64777      -10.22474        7.20500
H          3.40423       -9.65846        5.55445
H          5.83601      -10.16020        5.04476
H          6.06995      -10.66014        6.71725
H          5.43226       -8.33900        7.49091
H          5.19676       -7.85285        5.81324
H          7.62251       -8.42963        5.33468
H          7.84770       -8.81873        7.03800
H          7.25285       -6.44408        7.65487
H          7.00664       -6.06870        5.94938
H          9.40795       -6.70665        5.48131
H          9.66844       -6.98111        7.20918
H          9.12668       -4.59862        7.71442
H          8.82635       -4.28125        5.98645
H         10.74768       -3.75563        4.67449
H         11.09973       -5.50773        4.70301
H         13.13011       -4.24375        4.23428
H         14.46985       -5.66772        5.56311
H         12.95625       -6.26756        6.27499
H         13.18459       -4.89324        8.20470
H         13.97202       -2.37872        7.72438
H         12.50676       -1.78864        4.40033
H         13.58285       -1.04442        5.62283
H         11.48656       -1.49226        7.23483
H         10.74583        0.83465        6.75109
H         11.69278        0.83436        5.23439
H         12.92784        1.65254        7.11064
H          9.55384       -1.25706        6.00242
H         16.05728       -4.95530        7.13960
H         15.29903       -6.10087        8.23591
H         16.14332       -3.18508        8.80564
H         16.88299       -4.65490        9.40725
