33

C          1.21629       -0.84841       -0.16347
C          2.59730       -0.21979        0.03385
C          3.00428        0.67310       -1.14529
C          4.39399        1.33546       -0.90257
C          4.80241        2.18362       -2.04693
N          5.44266        1.70870       -3.07660
C          5.78592        2.69848       -4.11874
C          4.92678        3.90502       -3.70897
C          4.58176        3.66228       -2.21473
C          3.20675        4.17596       -1.75105
C          3.08226        5.69029       -1.68213
C          4.13053        6.59457       -1.18557
O          3.86013        6.47710       -2.59802
H          0.96146       -1.49710        0.68445
H          1.17807       -1.46392       -1.07372
H          0.43189       -0.08212       -0.24183
H          3.35436       -1.01002        0.16731
H          2.60753        0.37547        0.96155
H          2.24262        1.45088       -1.30588
H          3.04641        0.07926       -2.07268
H          5.14260        0.54596       -0.73347
H          4.34977        1.95428        0.00526
H          5.75329        0.73714       -3.12760
H          5.55423        2.29054       -5.11036
H          6.86900        2.88975       -4.06831
H          3.99882        3.92856       -4.29658
H          5.43356        4.86018       -3.86537
H          5.35887        4.11732       -1.56488
H          2.96241        3.78099       -0.75165
H          2.43698        3.79039       -2.43885
H          2.04468        6.02903       -1.57911
H          5.10220        6.20498       -0.86338
H          3.84371        7.54817       -0.73469
