47

O          4.72132       -0.07893       -4.39484
C          3.84655       -1.20067       -4.19172
C          4.62032       -2.25543       -3.39339
C          5.10107       -1.76114       -2.06991
N          5.57522       -0.50737       -1.83140
C          5.95405       -0.44854       -0.50106
N          5.74275       -1.62817        0.08340
N          5.21636       -2.41086       -0.91486
C          4.78226       -3.76451       -0.54684
C          3.40592       -3.75777        0.14623
C          3.27588       -4.84949        1.22140
C          4.12814       -4.59932        2.47733
C          3.69102       -3.37746        3.29758
C          4.69547       -3.06134        4.40077
O          4.26295       -1.94820        5.22551
C          4.53301       -0.70074        4.76425
O          5.08577       -0.48034        3.69359
C          4.07476        0.31771        5.73814
C          4.27887        1.62311        5.52840
N          6.45536        0.65045        0.10989
N          6.83545        0.60586        1.45515
N          6.67176        1.82895       -0.58201
H          4.31722        0.52806       -5.03454
H          3.54717       -1.64340       -5.15386
H          2.93614       -0.89475       -3.64819
H          5.49203       -2.57884       -3.98773
H          3.98140       -3.13605       -3.24683
H          5.58419        0.21635       -2.55422
H          5.56402       -4.13953        0.12512
H          4.79205       -4.38367       -1.45241
H          2.61522       -3.87424       -0.60955
H          3.25712       -2.77116        0.60825
H          3.53795       -5.82829        0.78821
H          2.21571       -4.92236        1.50873
H          5.19008       -4.48662        2.19708
H          4.08678       -5.49899        3.11060
H          2.70080       -3.55884        3.74411
H          3.60389       -2.48793        2.65715
H          5.68009       -2.82366        3.97287
H          4.79565       -3.89640        5.10649
H          3.57894       -0.05492        6.63509
H          4.78697        1.97086        4.62767
H          3.95210        2.37042        6.25063
H          7.60799       -0.05283        1.57999
H          6.05478        0.31631        2.05664
H          5.82228        2.31799       -0.85592
H          7.38476        1.77205       -1.30663
