53

C         12.07284       -0.47053        3.78969
C         10.91123       -0.36012        2.80037
C         11.35111        0.09695        1.40606
C         10.19488        0.22840        0.41059
C         10.64452        0.67610       -0.98368
C          9.48544        0.84723       -1.97050
C          9.95243        1.29348       -3.35886
C          8.76797        1.51675       -4.32851
C          9.20435        1.97216       -5.67166
N          9.28009        3.21877       -6.07218
N          9.78702        3.17652       -7.34529
C         10.02080        1.92342       -7.73663
N         10.50982        1.53716       -8.93898
C         10.82635        2.47646       -9.90828
N         10.72004        3.76623       -9.80577
N         11.15425        4.27956      -11.03557
C         11.48380        3.24924      -11.77056
O         11.29397        2.03267      -11.09199
S         12.08344        3.12877      -13.37849
C         12.20710        4.91827      -13.79205
C         12.68664        5.05847      -15.23794
C         11.68149        4.58774      -16.29581
C         12.18533        4.80464      -17.72381
N          9.66533        1.12285       -6.69256
I          9.76076       -0.93003       -6.72337
H         11.72894       -0.80180        4.77871
H         12.57740        0.49832        3.92028
H         12.82684       -1.19156        3.44055
H         10.15875        0.34512        3.19152
H         10.40035       -1.33420        2.71824
H         12.09698       -0.61438        1.00927
H         11.87214        1.06690        1.48902
H          9.45633        0.94866        0.80348
H          9.66591       -0.73736        0.33220
H         11.36474       -0.05690       -1.38745
H         11.19399        1.62962       -0.90118
H          8.77222        1.58897       -1.57251
H          8.92692       -0.10088       -2.05556
H         10.64181        0.54081       -3.77748
H         10.52224        2.23255       -3.28018
H          8.09690        2.28950       -3.92874
H          8.17572        0.59259       -4.42851
H          9.96660        3.99908       -7.94336
H         10.64634        0.54691       -9.13375
H         12.90931        5.36680      -13.07910
H         11.21426        5.36245      -13.64356
H         13.64946        4.53595      -15.36612
H         12.90381        6.12888      -15.38918
H         10.73019        5.12522      -16.14903
H         11.45367        3.51941      -16.14618
H         12.39724        5.86687      -17.91455
H         11.44045        4.47649      -18.46059
H         13.11095        4.24124      -17.91142
