110

C          0.75893       -2.39668        4.52750
C          2.25025       -2.20264        4.24168
C          2.80560       -0.87953        4.78104
C          4.29570       -0.67483        4.49132
C          4.85193        0.65541        5.01046
C          6.33838        0.85601        4.69860
C          6.90435        2.19443        5.18543
C          8.38753        2.38267        4.84966
C          8.96845        3.72374        5.31121
C         10.45015        3.89446        4.95892
C         11.05245        5.22612        5.42055
C         12.53892        5.36978        5.07391
C         13.16675        6.67528        5.57369
C         14.66742        6.78120        5.27265
C         15.30288        8.05232        5.85290
C         16.82762        8.07071        5.80105
O         17.29189        9.23139        6.49004
C         18.69153        9.17503        6.75455
C         19.50151        9.19917        5.45244
N         18.95798        8.11851        4.53644
C         17.44254        8.05086        4.38922
C         16.95658        9.17390        3.46120
C         17.75718        9.30743        2.17603
O         18.92968        8.93140        2.06293
O         17.07652        9.90553        1.21426
C         17.80034       10.19229       -0.04467
C         17.84310        8.99037       -0.97435
C         18.64193        9.31019       -2.24654
C         18.80352        8.09948       -3.17258
C         19.63108        8.40463       -4.42512
C         19.84109        7.18881       -5.33319
C         20.67280        7.49573       -6.58390
C         20.89253        6.27367       -7.47909
C         21.05127        9.05002        5.57993
C         21.74228        9.30592        4.18550
C         21.50449       10.69698        3.57048
C         23.25485        9.02112        4.19421
C         21.52224       10.05460        6.67290
O         20.90022       11.33689        6.60652
C         21.42307        7.63707        6.08552
H          0.39171       -3.35173        4.12665
H          0.15758       -1.59397        4.07505
H          0.55506       -2.39079        5.60879
H          2.42664       -2.25211        3.15357
H          2.82167       -3.04023        4.67675
H          2.63339       -0.82972        5.87095
H          2.23086       -0.04152        4.34808
H          4.46553       -0.73781        3.40170
H          4.87100       -1.50791        4.93274
H          4.69374        0.71806        6.10160
H          4.27167        1.48763        4.57426
H          6.49337        0.77305        3.60814
H          6.91892        0.03037        5.14706
H          6.76152        2.27826        6.27723
H          6.32124        3.02038        4.74123
H          8.52670        2.28357        3.75844
H          8.96949        1.55992        5.30159
H          8.83811        3.82307        6.40325
H          8.38736        4.54834        4.86220
H         10.57728        3.79632        3.86618
H         11.02612        3.06373        5.40375
H         10.92253        5.32640        6.51241
H         10.48741        6.06161        4.97162
H         12.66787        5.29382        3.97965
H         13.09306        4.51619        5.50292
H         13.01569        6.75852        6.66369
H         12.63982        7.53703        5.12897
H         14.81827        6.73188        4.17916
H         15.17809        5.89510        5.68985
H         15.03672        8.14440        6.91672
H         14.89934        8.95377        5.36521
H         17.20353        7.16676        6.32962
H         18.91656        8.27788        7.36240
H         18.93000       10.06963        7.33988
H         19.27768       10.15012        4.95443
H         19.30509        7.20543        4.85481
H         19.29097        8.30131        3.54271
H         17.25232        7.07691        3.91290
H         16.98722       10.14634        3.98007
H         15.90367        9.00253        3.20530
H         18.80980       10.53221        0.22258
H         17.23122       11.02642       -0.47129
H         16.81665        8.68664       -1.23299
H         18.31488        8.14230       -0.45476
H         19.64198        9.68209       -1.96328
H         18.15437       10.13314       -2.79630
H         17.80806        7.72660       -3.46916
H         19.28104        7.27694       -2.61137
H         20.61455        8.80603       -4.12221
H         19.14098        9.21034       -4.99930
H         18.85987        6.78385       -5.63825
H         20.33299        6.38408       -4.75806
H         21.64884        7.90982       -6.27751
H         20.17588        8.29307       -7.16211
H         21.42693        5.47542       -6.94217
H         21.48473        6.52740       -8.36870
H         19.93619        5.85449       -7.82614
H         21.30840        8.57089        3.48254
H         22.10074       11.47248        4.07450
H         20.45556       11.01893        3.57731
H         21.82918       10.69021        2.52157
H         23.79760        9.68934        4.87846
H         23.66473        9.19373        3.19056
H         23.49760        7.98740        4.46735
H         22.61915       10.13645        6.63736
H         21.27425        9.64790        7.66546
H         21.43352       11.92588        6.05375
H         21.35825        6.87156        5.29579
H         20.79887        7.32019        6.93232
H         22.46079        7.61227        6.44071
