58

C          1.03396       -0.09216        0.25779
C          2.56138       -0.03763        0.17168
C          3.06500        0.65284       -1.10173
C          4.59258        0.72232       -1.17204
C          5.08896        1.44191       -2.45284
C          6.56882        1.56351       -2.47098
N          7.41557        0.60600       -3.01214
C          6.97557       -0.61193       -3.73639
C          8.12089       -1.51211       -4.18476
C          7.59084       -2.72761       -4.97421
C          8.71038       -3.66029       -5.38126
C          9.01776       -4.78520       -4.60338
C         10.07272       -5.62980       -4.95706
C         10.83636       -5.35686       -6.09455
C         10.53747       -4.23895       -6.87863
C          9.48064       -3.39799       -6.52392
C          8.69603        0.98130       -2.80668
N          8.70499        2.15117       -2.17882
C          7.39776        2.55116       -1.94200
C          6.95202        3.79607       -1.29495
O          5.82538        3.92376       -0.86030
C          7.90347        5.05097       -1.26085
C          8.56841        5.38213        0.12650
C          9.51630        4.29529        0.74921
C         10.85027        4.05267       -0.02803
O         10.89637        3.30963       -0.98844
O         11.91558        4.69418        0.42127
F          9.81455        4.70463        2.01769
F          8.83786        3.11455        0.82440
F          9.31349        6.51323       -0.02460
F          7.58104        5.61649        1.01719
F          8.90026        4.92742       -2.19651
F          7.15301        6.12492       -1.58913
H          0.70667       -0.59169        1.17900
H          0.60345       -0.64420       -0.59038
H          0.59710        0.91691        0.25398
H          2.97176       -1.06059        0.21801
H          2.96296        0.49154        1.05188
H          2.65575        1.67625       -1.15088
H          2.67502        0.12326       -1.98838
H          5.01881       -0.29436       -1.12881
H          4.98211        1.26378       -0.29644
H          4.65789        2.45175       -2.48058
H          4.73902        0.90999       -3.34982
H          6.38969       -0.27200       -4.60346
H          6.29474       -1.15564       -3.06623
H          8.69002       -1.87475       -3.31364
H          8.82048       -0.95577       -4.82923
H          7.05274       -2.37265       -5.86795
H          6.85955       -3.27464       -4.35869
H          8.41625       -5.01120       -3.71955
H         10.29215       -6.50772       -4.34841
H         11.65589       -6.01878       -6.37566
H         11.12197       -4.02807       -7.77489
H          9.24309       -2.53598       -7.15271
H          9.57542        0.41950       -3.09755
H          9.56484        2.62120       -1.81132
H         11.70673        5.20502        1.23021
