50

O          1.54306        5.12334        2.73231
C          2.88985        4.69411        2.88019
C          2.92995        3.24232        2.42171
O          4.26980        2.77429        2.63033
C          4.52170        1.47634        2.13272
C          6.01639        1.20964        2.33615
P          6.64604        1.70497        3.98094
C          6.07885        0.61164        5.37808
C          6.41538       -0.85013        4.96986
C          6.27496       -1.96290        6.04139
C          4.82166       -2.39295        6.28947
C          7.12230       -3.16750        5.60378
C          6.89454        1.03447        6.61974
O          6.89078        2.46270        6.68959
C          4.57689        0.91070        5.59167
C          8.46616        1.85626        3.81218
C          8.84868        3.25874        3.29539
C          8.87223        4.28939        4.41563
Br         8.86943        6.11867        3.74173
Br        10.60897        3.13133        2.41908
H          1.49790        6.07810        2.89084
H          3.22766        4.75415        3.93267
H          3.58639        5.28988        2.26366
H          2.65987        3.17009        1.35380
H          2.21248        2.63646        3.00398
H          4.29093        1.40638        1.05361
H          3.90516        0.71686        2.64954
H          6.60352        1.81102        1.62405
H          6.27175        0.15505        2.16343
H          6.14380        2.99958        4.20751
H          7.46180       -0.87128        4.61807
H          5.79259       -1.13300        4.10492
H          6.69646       -1.59581        6.99252
H          4.34563       -2.72437        5.35371
H          4.20002       -1.59796        6.71787
H          4.79089       -3.23809        6.98954
H          6.77299       -3.56951        4.64013
H          7.05641       -3.97805        6.34100
H          8.18269       -2.89958        5.49356
H          7.92593        0.64131        6.55657
H          6.42009        0.59151        7.50990
H          7.22723        2.74565        7.55403
H          3.95409        0.46879        4.80499
H          4.37428        1.98825        5.63614
H          4.25474        0.48046        6.54766
H          8.79260        1.07983        3.10775
H          8.94644        1.65202        4.77834
H          8.18051        3.58604        2.48739
H          9.76450        4.17975        5.04190
H          7.97832        4.20198        5.04646
