94

C          4.48079       -1.51780        0.94746
C          5.67314       -1.93016        0.08188
C          5.58003       -1.42999       -1.36507
C          6.80331       -1.81890       -2.20394
C          6.71751       -1.45838       -3.69471
C          6.50137        0.01993       -3.99794
O          7.45014        0.90417       -3.32977
C          8.75865        0.87017       -3.79516
P          9.08261        2.01095       -5.24028
C          8.46068        3.70241       -4.98470
C          6.92159        3.89206       -5.01080
O          6.25714        2.80974       -5.70667
C          6.14201        2.94406       -7.06866
O          6.72416        3.80038       -7.70025
C          5.22854        1.89343       -7.65384
S          3.47189        2.18483       -7.23132
C          6.31564        3.97101       -3.61295
O          4.91671        4.27811       -3.69429
C          4.61447        5.61360       -3.79988
O          5.44560        6.49495       -3.74611
C          3.13759        5.81090       -4.03228
S          2.82389        5.99134       -5.83039
C         10.86301        1.99497       -5.63835
C         11.18491        2.16635       -7.13855
C         10.71752        3.49118       -7.74984
C         11.22441        3.72801       -9.17651
C         10.77451        5.08643       -9.72366
C         11.27546        5.39738      -11.13735
C         10.84647        6.78825      -11.61467
C         11.33809        7.15963      -13.01707
C         10.89793        8.56501      -13.43833
C         11.36692        8.98748      -14.83427
C         10.88842       10.39335      -15.20692
C         11.34198       10.84542      -16.60154
N         10.86508       12.17770      -16.94398
C          9.63472       12.46470      -17.49583
C          9.48569       13.83970      -17.53142
C         10.66495       14.40665      -16.97194
C         11.49442       13.35891      -16.61338
H          4.58239       -1.89682        1.97300
H          3.53626       -1.90962        0.54222
H          4.38692       -0.42317        1.00677
H          5.76516       -3.02902        0.07726
H          6.60558       -1.55155        0.53408
H          5.45862       -0.33291       -1.35394
H          4.66539       -1.83415       -1.83413
H          6.96060       -2.90661       -2.13119
H          7.70374       -1.35756       -1.76453
H          5.87073       -1.98816       -4.16397
H          7.61363       -1.83154       -4.21934
H          5.53093        0.37201       -3.62709
H          6.52198        0.21110       -5.08372
H          9.10679       -0.13013       -4.11334
H          9.42760        1.21908       -2.99107
H          8.42083        1.47782       -6.36733
H          8.92171        4.28970       -5.79061
H          8.88804        4.05773       -4.03366
H          6.71916        4.82240       -5.55918
H          5.45287        0.90650       -7.22661
H          5.37457        1.86210       -8.73854
H          3.37205        3.38308       -7.85467
H          6.83802        4.75318       -3.04217
H          6.38685        3.00722       -3.09605
H          2.78784        6.70013       -3.49714
H          2.56413        4.93199       -3.71773
H          3.41382        7.20369       -5.95468
H         11.24764        1.03328       -5.26183
H         11.33115        2.78558       -5.03045
H         10.76533        1.31601       -7.70061
H         12.27859        2.07974       -7.23349
H         11.05663        4.32538       -7.10942
H          9.61354        3.53941       -7.76849
H         10.86572        2.91942       -9.83612
H         12.32617        3.66831       -9.18780
H         11.12265        5.87976       -9.03847
H          9.67162        5.13691       -9.70761
H         10.90259        4.63158      -11.83949
H         12.37660        5.32281      -11.16213
H         11.21108        7.54246      -10.89492
H          9.74465        6.85698      -11.58726
H         10.96483        6.42049      -13.74735
H         12.43947        7.09113      -13.05165
H         11.26797        9.29606      -12.69816
H          9.79639        8.62713      -13.39466
H         11.00186        8.26020      -15.58076
H         12.46926        8.94333      -14.88144
H         11.25342       11.12252      -14.46527
H          9.78789       10.43717      -15.16479
H         10.97892       10.14512      -17.36957
H         12.44085       10.84834      -16.66735
H          8.97586       11.66696      -17.82422
H          8.63067       14.37503      -17.93166
H         10.89128       15.46207      -16.85929
H         12.48119       13.35277      -16.16120
