35

C          2.08282        1.26082       -0.07080
C          3.20284        0.37327        0.48530
C          3.31542       -0.91388       -0.30515
O          4.39413       -1.72943        0.29999
C          4.70544       -2.85021       -0.33254
O          4.23036       -3.28516       -1.36229
C          5.78727       -3.61907        0.45236
N          6.58993       -4.42279       -0.46691
N          6.21071       -5.60652       -1.02852
N          7.12818       -6.02342       -1.86664
N          8.10532       -5.13866       -1.90865
C          7.77473       -4.14560       -1.06534
N          8.57547       -3.05828       -0.75673
O          7.82567       -1.85829       -0.97248
O          9.77294       -3.06360       -1.44300
C          4.99715       -6.37659       -0.72991
C          5.10242       -7.18566        0.55371
C          6.37002       -7.65152        1.12836
O          5.66230       -6.51338        1.68649
H          2.00972        2.19080        0.50583
H          1.10587        0.75996       -0.01753
H          2.26442        1.53390       -1.11988
H          3.00881        0.13491        1.54198
H          4.16441        0.90769        0.44749
H          3.58061       -0.74481       -1.35813
H          2.39343       -1.51206       -0.26975
H          5.33734       -4.29408        1.19372
H          6.47178       -2.94708        0.97873
H          8.22098       -1.23346       -0.33314
H          9.57806       -3.08728       -2.40820
H          4.87133       -7.03697       -1.59798
H          4.15554       -5.67129       -0.71152
H          4.18805       -7.75704        0.75197
H          7.32137       -7.41780        0.64282
H          6.36885       -8.54369        1.75823
