63

C          0.61897       -0.32588       -0.74257
C          2.12278       -0.05804       -0.84872
C          2.90920       -1.25040       -1.40501
C          4.42046       -1.00961       -1.49325
C          5.18865       -2.21695       -2.04062
C          6.70724       -2.01332       -2.08482
C          7.42869       -3.25878       -2.62711
C          8.92642       -3.07750       -2.59740
O          9.39495       -2.24697       -3.60957
C         10.81808       -2.26976       -3.47990
C         11.16599       -3.75964       -3.27640
N          9.86863       -4.35438       -2.73190
C          9.44278       -5.68189       -3.40918
C          8.25646       -5.68172       -4.33388
C          7.08756       -6.30046       -3.85766
C          5.92936       -6.35356       -4.62709
C          5.93663       -5.78685       -5.90319
C          7.10407       -5.20810       -6.40087
C          8.28355       -5.14925       -5.64350
C          9.50730       -4.51874       -6.25631
C         12.36140       -4.05938       -2.34020
C         12.03471       -3.84766       -0.87911
C         12.16815       -2.59098       -0.26636
C         11.76395       -2.39707        1.05604
C         11.21697       -3.45445        1.78998
C         11.09718       -4.71604        1.20339
C         11.50610       -4.91108       -0.12112
H          0.08365        0.54273       -0.33632
H          0.41125       -1.18144       -0.08253
H          0.18193       -0.55439       -1.72604
H          2.52091        0.20679        0.14543
H          2.29723        0.82331       -1.48855
H          2.52083       -1.50808       -2.40618
H          2.71982       -2.13572       -0.77219
H          4.80780       -0.75247       -0.49171
H          4.61743       -0.12959       -2.12968
H          4.82394       -2.45531       -3.05471
H          4.96101       -3.10298       -1.42176
H          7.07873       -1.78190       -1.07139
H          6.95167       -1.14304       -2.71389
H          7.09736       -3.47704       -3.64948
H          7.16319       -4.12777       -2.00521
H          9.24839       -2.70140       -1.60443
H         11.13009       -1.65443       -2.62040
H         11.25644       -1.86501       -4.39861
H         11.33315       -4.22855       -4.25115
H         10.07714       -4.60610       -1.74734
H          9.23566       -6.36192       -2.57393
H         10.35557       -6.03800       -3.90716
H          7.08856       -6.73920       -2.85719
H          5.03198       -6.83404       -4.23745
H          5.03852       -5.81195       -6.52102
H          7.10946       -4.79583       -7.41134
H          9.39945       -4.45040       -7.34502
H         10.42054       -5.10083       -6.05979
H          9.66133       -3.49610       -5.88139
H         13.19395       -3.41485       -2.65883
H         12.69087       -5.09563       -2.50550
H         12.61301       -1.76115       -0.81940
H         11.88419       -1.41709        1.51912
H         10.90647       -3.29877        2.82333
H         10.70446       -5.55450        1.77954
H         11.46492       -5.91598       -0.55341
