28

F          2.53888       -3.10262       -1.77103
C          2.15774       -1.77739       -2.01081
C          2.84155       -0.85779       -0.98733
C          4.33709       -0.91951       -1.09697
C          5.03960       -1.86617       -0.33424
C          6.41940       -2.01563       -0.42769
N          7.07324       -1.20332       -1.29819
C          6.46035       -0.27280       -2.05975
C          5.08547       -0.10081       -1.97937
I          4.21981        1.37231       -3.19791
C          7.23792       -2.97038        0.40982
C          8.35126       -3.66451       -0.39155
O          9.26285       -2.65357       -0.87633
C          7.77979       -2.24842        1.66626
H          1.06589       -1.71154       -1.90385
H          2.44243       -1.52868       -3.04395
H          2.53012       -1.16439        0.02053
H          2.48314        0.16782       -1.15763
H          4.48821       -2.51444        0.34653
H          8.09418       -1.38387       -1.38677
H          7.09884        0.31070       -2.72048
H          6.55308       -3.76846        0.73551
H          7.92340       -4.23221       -1.23476
H          8.87983       -4.36607        0.27219
H         10.00497       -3.07665       -1.33617
H          8.48441       -1.45089        1.39930
H          8.30628       -2.96766        2.30703
H          6.96179       -1.80804        2.24960
