53

C          5.61073       -7.68988       10.87981
C          5.25805       -6.85379        9.64767
C          6.24481       -5.71000        9.38784
C          5.89379       -4.87715        8.15048
C          6.88055       -3.72991        7.89590
C          6.49615       -2.92528        6.66346
O          7.40874       -1.78746        6.46620
C          8.50391       -2.02195        5.73549
O          8.81053       -3.07430        5.20862
C          9.36453       -0.75944        5.61683
C         10.83519       -1.16945        5.71196
C         11.20910       -1.64546        7.14347
C         10.78384       -0.71268        8.25051
C          9.89409       -1.06889        9.18031
O         12.60109       -1.99958        7.20789
C         13.46653       -0.92500        6.88142
C         13.22416       -0.45144        5.45675
N         11.77805       -0.04212        5.28065
C         11.51141        0.49849        3.90429
C         10.93719        1.90482        4.09649
O         10.88751        2.41004        5.20778
O         10.55411        2.44320        2.95406
C         10.03024        3.81028        3.01869
H          4.88332       -8.49749       11.03623
H          5.62411       -7.07479       11.79190
H          6.60337       -8.15365       10.77876
H          4.24337       -6.43661        9.76237
H          5.21758       -7.50550        8.75864
H          7.26215       -6.12414        9.27367
H          6.28212       -5.05209       10.27403
H          4.87542       -4.46729        8.26332
H          5.86245       -5.53475        7.26515
H          7.89480       -4.14023        7.76137
H          6.90894       -3.05891        8.76992
H          5.51288       -2.45223        6.77619
H          6.50960       -3.54015        5.75401
H          9.08781       -0.03004        6.38719
H          9.12140       -0.32583        4.63487
H         11.03278       -1.99877        5.01635
H         10.68401       -2.60261        7.27468
H         11.22725        0.28772        8.29650
H          9.42624       -2.05586        9.17384
H          9.60104       -0.39001        9.98109
H         14.49128       -1.31046        6.96045
H         13.37260       -0.08638        7.59595
H         13.41635       -1.25835        4.73651
H         13.84458        0.42082        5.20951
H         11.58399        0.79826        5.88045
H         10.83147       -0.15630        3.34866
H         12.45498        0.55704        3.34663
H          9.77306        4.05832        1.98673
H         10.80391        4.48240        3.40682
H          9.14627        3.83540        3.66539
