71

C         11.42673       -5.59004       17.75480
C         11.04471       -4.19119       17.26517
C         11.34217       -3.97000       15.77785
C         10.92225       -2.58894       15.26431
C         11.23706       -2.37245       13.78098
C         10.76557       -1.01538       13.24580
C         11.11748       -0.81244       11.76589
C         10.57915        0.49535       11.21989
O         11.03510        0.60538        9.82109
C         10.42500        1.51433        9.04402
O          9.54957        2.27746        9.36938
C         10.99249        1.43869        7.60497
C         12.47200        1.37750        7.56795
N         13.32486        2.43214        7.49376
C         12.97638        3.86924        7.45796
C         12.73674        4.45262        8.85226
C         12.46471        5.96009        8.78796
C         12.19252        6.57400       10.16586
C         11.97440        8.08962       10.11204
C         11.68324        8.71484       11.48015
C         11.49243       10.23396       11.42353
C         11.20209       10.87025       12.78752
C         11.01092       12.38734       12.71632
C         14.59425        1.91232        7.54473
N         14.57644        0.60428        7.63749
N         13.25466        0.28825        7.65023
C         12.85098       -1.13258        7.76419
C         12.05385       -1.57516        6.63164
C         11.38084       -1.95608        5.70352
H         11.21187       -5.71509       18.82449
H         12.49869       -5.78770       17.60630
H         10.86985       -6.36815       17.21189
H         11.58045       -3.43166       17.85907
H          9.97136       -4.01633       17.44978
H         10.83005       -4.74880       15.18532
H         12.42191       -4.11636       15.59723
H         11.42206       -1.80677       15.86200
H          9.83971       -2.45177       15.43164
H         10.76841       -3.17686       13.18744
H         12.32501       -2.47136       13.61993
H         11.21400       -0.20513       13.84555
H          9.67413       -0.92896       13.38153
H         10.70705       -1.64485       11.17044
H         12.21307       -0.83585       11.64109
H         10.96623        1.37098       11.76165
H          9.48194        0.54051       11.22473
H         10.62566        2.31404        7.05805
H         10.57984        0.53973        7.12190
H         12.09432        3.98315        6.81320
H         13.81198        4.37238        6.95282
H         13.61979        4.25470        9.48172
H         11.88369        3.94243        9.32673
H         11.60262        6.15060        8.12612
H         13.32731        6.46803        8.32325
H         13.03773        6.34966       10.83964
H         11.30753        6.08866       10.61215
H         11.14172        8.31450        9.42306
H         12.86725        8.56935        9.67437
H         12.50795        8.47563       12.17440
H         10.78014        8.24774       11.91058
H         10.66877       10.47276       10.72770
H         12.39597       10.69872       10.99069
H         12.02726       10.63389       13.48065
H         10.30098       10.40405       13.22098
H         11.90661       12.88486       12.31547
H         10.81019       12.81475       13.70797
H         10.16614       12.65321       12.06346
H         15.49555        2.51538        7.50230
H         12.30345       -1.24820        8.71201
H         13.79579       -1.68823        7.83521
H         10.80113       -2.31161        4.87523
