37

O          7.62650       -4.22820        6.43198
C          6.43814       -4.10769        5.65041
C          6.39781       -2.66348        5.13685
N          7.58904       -2.26121        4.38916
C          7.76668       -2.79944        3.05211
C          7.11133       -1.90983        1.97197
C          7.67436       -0.47284        2.04642
C          6.91975        0.50853        1.16321
C          7.34040        0.47263       -0.31342
C          6.54694        1.43531       -1.19803
C          6.63101        2.86213       -0.65688
C          6.20574        2.92056        0.80578
N          6.98886        1.96291        1.68431
Br         8.85971        2.58291        1.80073
I          6.10582        2.09023        3.73048
O          7.22705       -2.50417        0.68279
H          7.65493       -5.10631        6.84041
H          5.53030       -4.29673        6.24953
H          6.44348       -4.82133        4.80540
H          6.30681       -1.98896        6.00061
H          5.50380       -2.52270        4.51150
H          8.42058       -2.38055        4.96490
H          7.35026       -3.81694        2.93334
H          8.84708       -2.86780        2.84277
H          6.02460       -1.86345        2.15761
H          8.74647       -0.47604        1.79323
H          7.58756       -0.19472        3.11451
H          5.83430        0.31220        1.24265
H          7.19703       -0.57283       -0.62450
H          8.42154        0.67352       -0.38367
H          5.49345        1.11434       -1.24665
H          6.93048        1.39580       -2.22639
H          5.96413        3.54482       -1.20478
H          7.64854        3.26653       -0.76714
H          5.15684        2.60729        0.92731
H          6.31966        3.91949        1.24191
H          8.14291       -2.80542        0.55381
