102

C          0.85025       -0.41639        0.10642
C          2.38032       -0.38361        0.07955
C          2.94663        0.46081       -1.06681
C          4.47687        0.51295       -1.10286
C          5.03149        1.33844       -2.26766
C          6.56013        1.43106       -2.28741
C          7.10652        2.22812       -3.47558
C          8.63130        2.37356       -3.47259
C          9.16917        3.12315       -4.69473
C         10.68971        3.30460       -4.68942
C         11.22082        3.96592       -5.96453
C         12.74086        4.14904       -5.97042
C         13.27850        4.68108       -7.30376
C         14.80463        4.81293       -7.30226
C         15.35782        5.21973       -8.67288
N         16.83585        5.23202       -8.67363
C         17.61026        6.24515       -8.34463
C         17.10525        7.60733       -8.00204
C         17.91875        8.72113       -8.69011
C         17.33061       10.12801       -8.49478
C         16.42194       10.69314       -9.65596
C         15.07525        9.97121      -10.06003
C         13.85067        9.83687       -9.07104
C         13.16562       11.10126       -8.41545
C         12.55937       12.20300       -9.36304
F         11.73955       11.64588      -10.27094
F         11.86144       13.06492       -8.60944
F         13.53188       12.87470      -10.00119
F         12.14157       10.60105       -7.67603
F         14.05341       11.69318       -7.58138
F         12.90391        9.15495       -9.76215
F         14.24547        9.04193       -8.02567
F         14.62696       10.57996      -11.17800
F         15.40594        8.67362      -10.39300
F         16.14344       11.98524       -9.37951
F         17.18761       10.64670      -10.78745
F         16.64703       10.21957       -7.31174
F         18.37133       11.01243       -8.42813
S         19.29328        5.89220       -8.32825
C         18.97100        4.07340       -8.49579
C         17.55700        4.00757       -9.08262
C         20.05348        3.39499       -9.33044
C         19.84007        1.88426       -9.44590
O         20.95915        1.38736      -10.15242
C         20.83155        0.06051      -10.61975
C         21.66992       -0.11295      -11.89048
C         21.08032        0.43905      -13.24030
C         20.78812        1.96986      -13.45451
C         22.00037        2.94687      -13.37219
F         21.59946        4.14762      -13.88122
F         22.35893        3.14400      -12.07303
F         20.28506        2.06968      -14.71511
F         19.80583        2.37460      -12.58825
F         21.94623        0.08201      -14.23025
F         19.89321       -0.20482      -13.44581
F         22.91928        0.41053      -11.72433
F         21.80477       -1.46128      -12.09361
H          0.47205       -1.02721        0.93751
H          0.44402       -0.83604       -0.82616
H          0.43208        0.59507        0.22039
H          2.77112       -1.41229       -0.00013
H          2.75804        0.00802        1.03945
H          2.54946        1.48876       -0.99175
H          2.57255        0.06504       -2.02790
H          4.87767       -0.51454       -1.16048
H          4.85053        0.92833       -0.15013
H          4.60719        2.35725       -2.22723
H          4.67957        0.90485       -3.22053
H          6.98945        0.41368       -2.30266
H          6.90952        1.89110       -1.34622
H          6.64630        3.23185       -3.48540
H          6.78870        1.74308       -4.41551
H          9.09517        1.37235       -3.42666
H          8.94714        2.89468       -2.55174
H          8.68466        4.11303       -4.76075
H          8.87220        2.58151       -5.61017
H         11.17508        2.32058       -4.56316
H         10.98659        3.90259       -3.81004
H         10.73195        4.94538       -6.10512
H         10.92705        3.35373       -6.83526
H         13.22429        3.18104       -5.74971
H         13.03639        4.82976       -5.15353
H         12.82084        5.65868       -7.53130
H         12.96961        4.00044       -8.11576
H         15.25582        3.85259       -7.00098
H         15.12067        5.55504       -6.55085
H         14.99005        6.20617       -8.98253
H         15.05412        4.50516       -9.45074
H         17.16966        7.72509       -6.90822
H         16.04553        7.67572       -8.25831
H         18.02191        8.53066       -9.76599
H         18.93374        8.76921       -8.27051
H         18.97571        3.68822       -7.46409
H         17.00919        3.12808       -8.72160
H         17.57471        3.98193      -10.18624
H         21.03829        3.56382       -8.87023
H         20.08947        3.83088      -10.33923
H         18.90779        1.65357       -9.99835
H         19.76102        1.41837       -8.44261
H         19.78542       -0.19978      -10.85548
H         21.21790       -0.66910       -9.88629
H         22.86481        2.57724      -13.94453
