46

C          5.02465       -4.03835       -3.38819
C          4.71493       -3.39763       -2.03359
C          5.71284       -3.79233       -0.93927
C          5.45325       -3.08686        0.39669
C          6.40551       -3.54642        1.51201
C          6.20054       -2.72061        2.77052
O          6.95258       -3.26880        3.92903
C          8.23540       -2.96545        4.01618
O          8.89729       -2.29169        3.23940
C          8.87931       -3.57069        5.26680
P         10.68499       -3.45949        5.02454
C         11.39880       -1.79668        5.15670
C         12.88220       -1.72440        4.73613
C         13.14437       -2.00435        3.25148
C         14.60360       -1.75934        2.84851
C         14.86895       -2.06231        1.37292
C         11.46116       -4.52486        6.14982
C         12.02356       -5.26350        6.93026
H          4.28239       -3.75161       -4.14488
H          5.02381       -5.13627       -3.32089
H          6.01335       -3.72878       -3.75792
H          3.69855       -3.68086       -1.71304
H          4.70620       -2.29968       -2.13833
H          6.73786       -3.56099       -1.27762
H          5.67887       -4.88583       -0.79229
H          4.41100       -3.26346        0.71154
H          5.55048       -1.99732        0.25204
H          7.44862       -3.45128        1.17373
H          6.22405       -4.60888        1.73938
H          5.16220       -2.75623        3.12086
H          6.51245       -1.67676        2.63473
H          8.59676       -4.62093        5.42634
H          8.59070       -3.00972        6.16896
H         10.93955       -3.99643        3.74619
H         11.25624       -1.49628        6.20705
H         10.76308       -1.16252        4.52097
H         13.48667       -2.39359        5.36871
H         13.21140       -0.70202        4.97905
H         12.48241       -1.37285        2.63492
H         12.88837       -3.05000        3.00226
H         15.26418       -2.37652        3.47969
H         14.86436       -0.71079        3.06609
H         14.65105       -3.11359        1.13376
H         15.91861       -1.87522        1.11294
H         14.24765       -1.43523        0.71749
H         12.51966       -5.92121        7.62020
