103

C         13.46865        5.39247       -3.98392
C         13.26802        4.96557       -2.52767
C         13.50383        3.46908       -2.29688
C         13.26978        3.02256       -0.85040
C         13.49113        1.52319       -0.62847
C         13.18843        1.06223        0.79996
C         13.41260       -0.43643        1.02102
C         13.10698       -0.88703        2.45213
C         13.45554       -2.35471        2.72404
C         13.18791       -2.75251        4.18030
C         13.55960       -4.19131        4.47882
O         13.20966       -4.44956        5.87386
C         13.47079       -5.71091        6.32977
N         14.95185       -5.93956        6.57977
N         15.59285       -6.98404        6.10899
N         16.85565       -6.89672        6.47843
C         17.00152       -5.75706        7.18432
N         15.80514       -5.13365        7.25725
C         15.42654       -3.86405        7.92410
C         14.55056       -4.06688        9.16364
C         15.10430       -5.04498       10.20486
C         14.18407       -5.18318       11.42399
C         14.64847       -6.24040       12.43142
C         13.69385       -6.39795       13.61997
C         14.12683       -7.47170       14.62435
C         13.15962       -7.61925       15.80339
C         13.55740       -8.70875       16.80470
C         12.58551       -8.83180       17.98285
C         12.96815       -9.91692       18.99552
C         11.98934      -10.01943       20.16852
C         18.29997       -5.24658        7.69255
C         19.00942       -4.43900        6.58988
O         18.11192       -3.42469        6.17821
C         18.59883       -2.64183        5.07342
C         17.49351       -1.70477        4.61698
C         17.92329       -0.81081        3.44705
C         16.78289        0.06156        2.91071
C         17.19100        0.94653        1.73132
H         13.28941        6.46798       -4.11739
H         12.78128        4.85603       -4.65480
H         14.49305        5.18176       -4.32533
H         12.24481        5.22380       -2.20561
H         13.94396        5.54481       -1.87593
H         14.53398        3.21054       -2.60006
H         12.84085        2.89139       -2.96500
H         12.23912        3.28500       -0.55278
H         13.93190        3.59478       -0.17646
H         14.53454        1.26478       -0.88320
H         12.86063        0.95438       -1.33409
H         12.14413        1.31739        1.05158
H         13.81405        1.63057        1.51128
H         14.45951       -0.68588        0.77283
H         12.79177       -1.01151        0.31283
H         12.03871       -0.71899        2.67088
H         13.66263       -0.24848        3.16069
H         14.51864       -2.52816        2.48051
H         12.87817       -3.00573        2.04627
H         12.12325       -2.60756        4.42107
H         13.75703       -2.09023        4.85385
H         14.64128       -4.36508        4.33691
H         13.00561       -4.90355        3.84399
H         13.22968       -6.53122        5.63306
H         12.96124       -5.85273        7.29166
H         14.92958       -3.24584        7.16745
H         16.38474       -3.39046        8.16360
H         13.53401       -4.36594        8.86388
H         14.43522       -3.06512        9.60726
H         16.10713       -4.71739       10.53027
H         15.24039       -6.04329        9.75119
H         13.16600       -5.43605       11.07856
H         14.09664       -4.20503       11.92686
H         15.65665       -5.98233       12.79960
H         14.75264       -7.21229       11.91690
H         12.68417       -6.64018       13.24369
H         13.59636       -5.42910       14.14024
H         15.13556       -7.23327       15.00481
H         14.22139       -8.44140       14.10444
H         12.14743       -7.83382       15.41757
H         13.08052       -6.65248       16.33079
H         14.57223       -8.50206       17.18770
H         13.62420       -9.67932       16.28223
H         11.57062       -9.03630       17.59816
H         12.51865       -7.85925       18.50186
H         13.98286       -9.71448       19.37811
H         13.02939      -10.89015       18.47954
H         11.93020       -9.07096       20.72304
H         12.29105      -10.80062       20.87949
H         10.97374      -10.26151       19.82127
H         18.91594       -6.11150        7.97191
H         18.15399       -4.62696        8.58664
H         19.26886       -5.10349        5.74447
H         19.94755       -4.01908        6.99680
H         18.90189       -3.31977        4.25317
H         19.49469       -2.07606        5.38974
H         17.17607       -1.08271        5.47002
H         16.61809       -2.30894        4.32122
H         18.31173       -1.43944        2.62732
H         18.76337       -0.16927        3.76217
H         16.38740        0.68942        3.72695
H         15.95403       -0.59467        2.60419
H         17.98239        1.65489        2.01528
H         16.33960        1.53159        1.35888
H         17.57053        0.34481        0.89247
