103

C          4.69054       -1.94704        1.93323
C          5.43978       -1.74075        0.61464
C          5.59417       -0.26565        0.22941
C          6.35671       -0.04283       -1.08071
C          6.45510        1.43296       -1.47908
C          7.23310        1.68115       -2.77623
C          7.25280        3.16076       -3.17019
C          8.02633        3.42901       -4.46821
N          7.98384        4.84580       -4.86274
C          7.02023        5.36713       -5.64961
S          6.86487        6.99044       -6.01887
S          5.90270        4.10438       -6.30383
C          4.73500        5.10880       -7.24540
C          3.56008        5.59611       -6.39192
C          2.63591        6.51823       -7.20639
C          1.25011        6.76803       -6.58032
C          1.39989        7.48347       -5.21058
C          0.24706        8.18422       -4.66274
C         -0.64739        8.82966       -4.16638
N          0.53059        7.72686       -7.57543
C         -0.99283        7.76585       -7.58620
C         -1.54841        6.34724       -7.58094
N         -0.98730        5.69703       -6.40247
C          0.43472        5.45811       -6.54368
C         -3.08150        6.35253       -7.56437
C         -3.66530        4.94384       -7.75122
C         -5.19600        4.94607       -7.80579
S         -5.73963        3.23360       -8.07334
C         -7.47229        3.32123       -7.73410
S         -8.29252        4.69305       -7.35648
N         -8.07164        2.05919       -7.83397
C         -7.45923        0.81821       -8.05864
C         -8.47299       -0.09563       -8.07364
N         -9.70185        0.52350       -7.87213
C         -9.44309        1.79441       -7.73192
C          9.05265        5.69778       -4.31470
C         10.27253        5.76505       -5.24053
C         11.39258        6.63567       -4.66479
C         12.62065        6.71108       -5.57842
C         13.74961        7.58035       -5.01631
C         14.97983        7.65246       -5.92666
C         16.10714        8.52705       -5.36665
C         17.33019        8.60360       -6.28421
H          4.58177       -3.01354        2.17317
H          3.68097       -1.51151        1.89310
H          5.22029       -1.47165        2.77191
H          4.91316       -2.27244       -0.19619
H          6.43754       -2.20594        0.67983
H          6.10855        0.27210        1.04544
H          4.59296        0.19516        0.15230
H          5.86450       -0.60762       -1.89211
H          7.37150       -0.46781       -0.99013
H          6.92715        2.00221       -0.65940
H          5.43656        1.84754       -1.58534
H          6.78461        1.09017       -3.59400
H          8.26622        1.30938       -2.66290
H          7.69504        3.75801       -2.35595
H          6.21967        3.52271       -3.29585
H          7.63898        2.80933       -5.29064
H          9.08545        3.15419       -4.35457
H          4.39646        4.46001       -8.06727
H          5.30620        5.95849       -7.65354
H          3.96552        6.13991       -5.52685
H          3.01103        4.72319       -6.00945
H          2.47756        6.06980       -8.20480
H          3.15423        7.48009       -7.36355
H          2.23620        8.20045       -5.28911
H          1.73774        6.72103       -4.49092
H         -1.44327        9.38173       -3.70938
H          0.85372        7.45608       -8.51535
H          0.88683        8.67871       -7.41112
H         -1.27807        8.32833       -8.48562
H         -1.29930        8.30344       -6.68294
H         -1.21925        5.83926       -8.52168
H         -1.47914        4.83486       -6.17547
H          0.68029        4.88330       -7.46562
H          0.78898        4.86544       -5.69118
H         -3.44147        7.00545       -8.37553
H         -3.43034        6.79305       -6.61659
H         -3.35058        4.28093       -6.92850
H         -3.25805        4.50650       -8.67807
H         -5.57772        5.57213       -8.62487
H         -5.65010        5.30370       -6.87073
H         -6.38722        0.71124       -8.16872
H         -8.39968       -1.16952       -8.21528
H        -10.15273        2.59678       -7.56100
H          9.32966        5.28028       -3.33478
H          8.63479        6.70046       -4.15591
H          9.95029        6.16387       -6.21511
H         10.65156        4.74575       -5.42527
H         11.69522        6.24547       -3.67700
H         11.00664        7.65387       -4.48499
H         12.31528        7.10123       -6.56496
H         13.00125        5.69088       -5.76193
H         14.04986        7.19426       -4.02642
H         13.36817        8.60117       -4.83786
H         14.67925        8.03599       -6.91780
H         15.36447        6.63234       -6.10330
H         16.41009        8.13856       -4.37952
H         15.71922        9.54358       -5.18401
H         17.76232        7.60668       -6.45790
H         18.11821        9.23595       -5.85311
H         17.06747        9.02375       -7.26655
