90

C          6.14565        4.00150        3.99917
C          6.94158        3.03920        3.13806
O          6.27319        1.73856        2.98769
P          6.44777        0.58488        4.08493
O          7.78687        0.49251        4.72846
O          5.31028        0.75223        5.19345
C          3.92020        1.10388        4.90336
C          3.05799        0.59467        6.03858
C          6.00649       -0.90755        3.13387
C          6.93804       -1.28644        1.96538
C          8.45968       -1.31922        2.23424
P          9.02385       -2.26168        3.68764
C          8.40049       -3.96991        3.68096
C          8.67386       -4.78737        4.97110
C          8.08486       -4.14752        6.25158
C          6.57348       -3.89155        6.25105
C          8.18428       -6.22742        4.75434
C         10.83521       -2.22185        3.81293
C         11.43671       -0.80559        3.88628
C         12.95671       -0.85329        4.09453
C         13.61093        0.53286        4.08109
C         15.13994        0.47775        4.18519
C         15.80822        1.85409        4.09765
C         17.33987        1.79555        4.11861
C         18.00278        3.17101        3.98812
C         19.53429        3.12099        3.96569
C         20.18306        4.50174        3.81795
C         21.71312        4.45941        3.77621
C         22.33334        5.85560        3.62417
N         23.78777        5.84223        3.57554
C         24.54858        5.69096        2.43595
C         25.87905        5.62185        2.80949
C         25.92522        5.72677        4.22755
C         24.62191        5.85692        4.67253
H          6.64810        4.97902        4.00536
H          6.07782        3.65519        5.03930
H          5.13291        4.14735        3.60073
H          7.94547        2.86160        3.54943
H          7.03816        3.40629        2.10886
H          3.61784        0.66542        3.93938
H          3.86477        2.19731        4.81058
H          3.10995       -0.49917        6.11824
H          2.01100        0.87724        5.86256
H          3.37464        1.02954        6.99514
H          4.98515       -0.79292        2.74227
H          5.94976       -1.70869        3.88883
H          6.78616       -0.57072        1.14495
H          6.61775       -2.26424        1.57604
H          8.84733       -0.30438        2.40765
H          8.98518       -1.73046        1.35875
H          8.50959       -1.56822        4.80657
H          8.85652       -4.46332        2.80747
H          7.31923       -3.91331        3.47826
H          9.76719       -4.83457        5.11222
H          8.61166       -3.20440        6.47487
H          8.33568       -4.81620        7.08900
H          6.26835       -3.15357        5.49365
H          6.25523       -3.49123        7.22186
H          5.99701       -4.80905        6.07146
H          7.10418       -6.26814        4.55427
H          8.38256       -6.83655        5.64620
H          8.69761       -6.70080        3.90618
H         11.23400       -2.78751        2.95496
H         11.08541       -2.79906        4.71816
H         10.95711       -0.23700        4.69918
H         11.21732       -0.25926        2.95520
H         13.41040       -1.47542        3.30355
H         13.17977       -1.36123        5.04842
H         13.20300        1.14277        4.90532
H         13.33206        1.05533        3.14911
H         15.53233       -0.16621        3.37855
H         15.42794       -0.01330        5.13086
H         15.45294        2.48939        4.92769
H         15.47948        2.35690        3.17091
H         17.68885        1.14447        3.29776
H         17.67742        1.31139        5.05159
H         17.67061        3.81711        4.81968
H         17.64326        3.65986        3.06533
H         19.86669        2.47184        3.13684
H         19.90075        2.64140        4.88994
H         19.85577        5.14764        4.65193
H         19.80455        4.98288        2.89858
H         22.05271        3.82730        2.93965
H         22.10533        3.99391        4.69499
H         22.02699        6.50108        4.46197
H         21.96805        6.33634        2.70367
H         24.07970        5.65693        1.45766
H         26.72361        5.52303        2.13513
H         26.81163        5.72365        4.85389
H         24.21825        5.96796        5.67408
