100

C          0.57571        0.27803        0.23382
C          2.08736        0.09133        0.08499
C          2.74478       -0.53481        1.32007
C          4.25634       -0.73651        1.16804
C          4.90694       -1.37372        2.40258
C          6.39627       -1.59953        2.21428
O          6.92673       -2.23768        3.39558
C          8.29722       -2.53896        3.27949
C          8.84163       -3.13236        4.57763
C         10.38591       -2.99315        4.58629
N         11.10224       -3.70804        5.62219
C         10.69335       -5.09600        5.71760
C          9.18006       -5.29215        5.92400
N          8.47975       -4.61531        4.72790
C          6.97574       -4.92575        4.65542
C          6.75085       -6.40468        4.51759
C          7.05516       -7.04416        3.30423
C          6.89744       -8.42430        3.17296
C          6.41783       -9.17643        4.24981
C          6.09043       -8.54560        5.45277
C          6.26088       -7.16600        5.58842
C          8.64340       -4.79564        7.26635
C          9.26441       -5.55545        8.44266
O          8.47060       -5.28015        9.57711
C          9.06833       -5.74485       10.79040
C          8.08972       -5.48771       11.92835
O          8.82065       -5.75238       13.11646
C          8.17349       -5.62863       14.32757
C          8.97328       -5.83511       15.46027
C          8.41681       -5.73936       16.72768
C          7.05140       -5.45020       16.92414
C          6.28144       -5.23369       15.77704
C          6.82195       -5.31799       14.48572
C          6.47855       -5.36389       18.34595
C          6.74392       -6.66824       19.16913
C          6.21563       -8.08523       18.78881
C          4.67688       -8.18295       18.79267
C          6.74400       -8.58713       17.43051
C          6.74979       -9.02926       19.88952
C          7.23013       -4.22778       19.09008
C          4.98763       -4.97683       18.35190
H          0.13719        0.72757       -0.66705
H          0.33494        0.93484        1.08266
H          0.06848       -0.68297        0.40519
H          2.56125        1.06534       -0.12307
H          2.29614       -0.53995       -0.79525
H          2.26709       -1.50721        1.53374
H          2.54654        0.09965        2.20144
H          4.73529        0.23533        0.95836
H          4.45006       -1.36802        0.28349
H          4.42553       -2.34146        2.62022
H          4.74913       -0.73563        3.28659
H          6.93006       -0.64433        2.05070
H          6.58862       -2.24532        1.33552
H          8.88354       -1.62316        3.06498
H          8.49101       -3.23236        2.42972
H          8.38450       -2.61979        5.43476
H         10.62408       -1.92338        4.64996
H         10.76533       -3.34045        3.60595
H         11.07348       -3.22800        6.52042
H         11.23755       -5.58992        6.53247
H         10.99832       -5.61336        4.78917
H          8.93212       -6.35774        5.80657
H          8.88128       -5.08553        3.90090
H          6.59637       -4.35439        3.80118
H          6.51675       -4.50698        5.55693
H          7.39674       -6.45881        2.44536
H          7.13401       -8.91143        2.22697
H          6.28796      -10.25383        4.14626
H          5.70027       -9.12837        6.28726
H          6.00142       -6.67795        6.52988
H          7.55835       -4.95130        7.33147
H          8.81570       -3.71860        7.40737
H         10.31020       -5.23311        8.61695
H          9.28941       -6.64616        8.23430
H         10.01147       -5.20257       10.98640
H          9.30082       -6.82337       10.72215
H          7.20980       -6.14917       11.84059
H          7.74157       -4.43950       11.89712
H         10.02967       -6.06860       15.32447
H          9.06607       -5.91083       17.58732
H          5.22198       -4.99764       15.86761
H          6.17492       -5.14092       13.62718
H          6.37973       -6.45773       20.18987
H          7.83796       -6.76426       19.27210
H          4.22655       -7.67854       17.92839
H          4.24301       -7.74861       19.70524
H          4.36792       -9.23783       18.74750
H          6.35602       -7.99859       16.58962
H          6.44028       -9.63369       17.27649
H          7.84188       -8.54854       17.38409
H          6.37398       -8.74025       20.88236
H          7.84918       -9.01468       19.92991
H          6.43437      -10.06569       19.70020
H          8.30446       -4.43710       19.18160
H          6.82661       -4.10035       20.10526
H          7.11662       -3.27567       18.55311
H          4.35946       -5.65372       17.76217
H          4.84570       -3.95880       17.96102
H          4.60503       -4.98974       19.38171
