76

C          5.87731        2.86254       -0.31082
C          6.89561        2.25884       -1.28036
C          6.25925        1.35062       -2.33739
C          7.27055        0.74489       -3.31519
C          6.63796       -0.17917       -4.36043
C          7.64968       -0.76421       -5.35079
C          7.01915       -1.72008       -6.36912
C          7.97637       -2.25711       -7.42177
O          9.03824       -3.08723       -6.82666
C          8.80689       -4.41692       -6.78498
O          7.81817       -4.97906       -7.19476
C          9.96175       -5.17541       -6.10201
C         11.33403       -4.57794       -6.26962
C         12.15192       -4.98959       -7.33457
C         13.42778       -4.45563       -7.56899
C         13.85686       -3.46532       -6.69129
N         13.06094       -3.09485       -5.66529
C         11.82804       -3.60053       -5.38938
C         11.13705       -3.08365       -4.16576
C         11.28411       -3.97520       -2.89619
C         12.75720       -4.14339       -2.48025
C         12.97484       -5.09886       -1.30289
C         10.41927       -3.37014       -1.78348
C         14.34456       -4.93531       -8.66391
C         15.53609       -5.72872       -8.09582
C         16.55392       -6.13107       -9.18186
N         17.78931       -6.51434       -8.49794
C         19.01016       -6.45826       -9.31204
C         20.19879       -6.93468       -8.49441
O         19.92421       -8.28691       -8.10552
O         16.20532       -4.92251       -7.13431
H          6.36341        3.50693        0.43414
H          5.33192        2.07719        0.23334
H          5.13314        3.47236       -0.84388
H          7.64848        1.68364       -0.71445
H          7.44920        3.06881       -1.78506
H          5.50392        1.92370       -2.90294
H          5.70649        0.53827       -1.83333
H          8.03412        0.18373       -2.74637
H          7.81244        1.55909       -3.82803
H          5.86405        0.37545       -4.91828
H          6.10897       -1.00170       -3.84812
H          8.44168       -1.28889       -4.78875
H          8.15270        0.05948       -5.88752
H          6.21796       -1.19589       -6.91722
H          6.52960       -2.56514       -5.85895
H          8.52720       -1.44649       -7.91742
H          7.45254       -2.86499       -8.16924
H          9.93603       -6.19411       -6.50722
H          9.68987       -5.25555       -5.03930
H         11.77437       -5.76284       -8.00893
H         14.82912       -2.98448       -6.76428
H         13.41616       -2.38279       -5.02598
H         10.07158       -2.95214       -4.39766
H         11.52357       -2.07705       -3.93062
H         10.88853       -4.97815       -3.13715
H         13.17231       -3.14992       -2.22918
H         13.33928       -4.52023       -3.33783
H         12.52011       -4.72433       -0.37690
H         14.04651       -5.23581       -1.10908
H         12.54632       -6.08992       -1.51239
H         10.79340       -2.37655       -1.49221
H         10.42158       -4.00377       -0.88850
H          9.37461       -3.25586       -2.10423
H         14.74126       -4.06984       -9.21738
H         13.78759       -5.56240       -9.37441
H         15.14577       -6.64729       -7.60865
H         16.77464       -5.24850       -9.80399
H         16.13672       -6.91398       -9.84273
H         17.71458       -7.45955       -8.11335
H         19.18247       -5.41753       -9.62679
H         18.93125       -7.07868      -10.22587
H         20.32585       -6.28956       -7.60668
H         21.11249       -6.87268       -9.11026
H         20.64983       -8.60706       -7.54915
H         17.13412       -5.27519       -7.18701
