63

C          4.77924      -11.53931        3.01514
C          4.62692      -10.85352        1.65576
C          5.82626       -9.97691        1.27911
C          5.67162       -9.27675       -0.07425
C          6.88092       -8.42076       -0.46339
C          6.71744       -7.72375       -1.81833
C          7.95765       -6.91735       -2.22948
C          7.75642       -6.26078       -3.58519
O          8.94625       -5.48106       -3.99311
C          9.91011       -6.13994       -4.61995
O          9.91080       -7.33747       -4.87498
C         11.02908       -5.18945       -5.07006
N         12.38099       -5.60282       -4.67317
C         13.03656       -6.68512       -5.12077
N         14.35758       -6.89676       -4.93698
C         14.76959       -8.10020       -5.68071
C         13.41034       -8.81383       -5.92864
N         12.45785       -7.69495       -5.77799
C         13.32264       -9.46492       -7.31780
C         11.98919      -10.19685       -7.57483
C         11.85238      -10.62190       -8.99433
C         11.83727      -11.87515       -9.46110
F         11.95013      -12.94550       -8.67628
F         11.70560      -12.20403      -10.73359
F         11.73712       -9.60544       -9.89341
C         13.11180       -9.84705       -4.80374
O         12.17890       -9.74352       -4.03645
O         14.01182      -10.83766       -4.84255
C         13.87267      -11.90473       -3.83616
C         14.64698      -11.56187       -2.57839
H          3.90624      -12.16307        3.25057
H          4.88861      -10.80292        3.82504
H          5.66668      -12.18943        3.03834
H          3.71260      -10.23635        1.65438
H          4.47627      -11.61569        0.87243
H          6.74057      -10.59678        1.26817
H          5.98592       -9.21948        2.06679
H          4.76645       -8.64485       -0.05698
H          5.49557      -10.03377       -0.85873
H          7.78426       -9.05515       -0.48824
H          7.06309       -7.66316        0.31849
H          5.83620       -7.06051       -1.78582
H          6.50297       -8.48033       -2.59255
H          8.83103       -7.58671       -2.27351
H          8.17405       -6.14262       -1.47692
H          6.95929       -5.50818       -3.56802
H          7.55416       -6.99941       -4.37186
H         10.85976       -4.19259       -4.65215
H         10.96770       -5.11400       -6.16846
H         12.90781       -4.94350       -4.11183
H         15.00505       -6.13057       -4.78261
H         15.46215       -8.71603       -5.09685
H         15.24565       -7.82367       -6.63450
H         11.45008       -7.85581       -5.57235
H         14.15622      -10.17340       -7.42525
H         13.46135       -8.67101       -8.06634
H         11.13612       -9.53865       -7.33501
H         11.89952      -11.08177       -6.92955
H         14.27704      -12.78842       -4.34313
H         12.80283      -12.04621       -3.63854
H         15.70724      -11.38313       -2.80174
H         14.58903      -12.40549       -1.87703
H         14.22812      -10.67956       -2.07736
