95

C          0.52624        0.44707        0.48686
C          2.05254        0.48008        0.58978
C          2.67302       -0.90639        0.78512
C          4.20202       -0.89324        0.86673
C          4.81716       -2.28916        0.99928
C          6.34835       -2.29195        1.03617
C          6.94855       -3.70034        1.05774
C          8.47968       -3.72956        1.02661
C          9.04553       -5.14759        0.91339
C         10.56955       -5.21472        0.77865
C         11.07554       -6.63983        0.54151
C         12.58275       -6.75088        0.29372
C         13.01443       -8.18165       -0.03857
C         14.49578       -8.33993       -0.39116
C         14.84472       -9.77310       -0.80376
C         16.30614       -9.97125       -1.22005
C         16.63882      -11.40579       -1.65913
C         15.96723      -11.82393       -2.97254
C         16.23091      -13.28314       -3.35746
C         15.55939      -13.67393       -4.68042
C         15.64278      -15.17306       -5.00928
N         17.04604      -15.64325       -5.03898
C         17.78366      -15.73314       -6.15669
N         19.08338      -16.05538       -6.10121
C         19.84883      -16.42479       -4.93283
C         21.23739      -16.87373       -5.46724
O         21.40735      -16.83815       -6.68332
C         22.26990      -17.32045       -4.51755
C         22.05857      -17.33979       -3.12488
C         23.06967      -17.77610       -2.27111
C         24.29570      -18.19672       -2.79860
C         24.51390      -18.18104       -4.18210
C         23.50932      -17.74512       -5.03904
N         17.21041      -15.51373       -7.35382
C         15.80752      -15.12184       -7.51953
C         14.97667      -15.61182       -6.33137
C         13.51902      -15.16627       -6.45820
H          0.10841        1.45252        0.33891
H          0.07456        0.02924        1.39888
H          0.19945       -0.17715       -0.35844
H          2.35368        1.13453        1.42517
H          2.47412        0.93838       -0.32081
H          2.36033       -1.56202       -0.04715
H          2.26039       -1.36506        1.70110
H          4.51938       -0.26750        1.71938
H          4.60902       -0.40372       -0.03574
H          4.47762       -2.91212        0.15264
H          4.42698       -2.77859        1.90888
H          6.69868       -1.72435        1.91581
H          6.73244       -1.75057        0.15352
H          6.56401       -4.26372        0.18879
H          6.58838       -4.24147        1.95018
H          8.88088       -3.23708        1.92932
H          8.83528       -3.13011        0.16994
H          8.59088       -5.64021        0.03538
H          8.72798       -5.74188        1.78819
H         11.04538       -4.79290        1.68077
H         10.88740       -4.57284       -0.06187
H         10.54243       -7.06339       -0.32857
H         10.79846       -7.27546        1.40094
H         13.13657       -6.38785        1.17656
H         12.86428       -6.08298       -0.53924
H         12.40754       -8.54458       -0.88758
H         12.76878       -8.84409        0.80998
H         15.12083       -8.03592        0.46602
H         14.75132       -7.65076       -1.21498
H         14.17496      -10.06380       -1.63101
H         14.61140      -10.45940        0.02977
H         16.96046       -9.69624       -0.37714
H         16.55525       -9.27213       -2.03744
H         16.34133      -12.10617       -0.85872
H         17.73168      -11.51025       -1.76790
H         16.31486      -11.16178       -3.78460
H         14.87813      -11.67409       -2.90119
H         15.86077      -13.94011       -2.54984
H         17.32177      -13.44496       -3.41915
H         15.99149      -13.08071       -5.50369
H         14.49344      -13.40485       -4.62640
H         15.16371      -15.73371       -4.19033
H         17.53401      -15.72677       -4.15466
H         19.64427      -16.19092       -6.95645
H         19.38866      -17.26162       -4.37961
H         19.98356      -15.57938       -4.23626
H         21.10861      -17.01468       -2.69757
H         22.90694      -17.78903       -1.19341
H         25.08583      -18.53680       -2.12808
H         25.47093      -18.50926       -4.58823
H         23.65896      -17.72433       -6.11856
H         17.79668      -15.59186       -8.17726
H         15.44032      -15.57414       -8.45041
H         15.73045      -14.02721       -7.62840
H         15.00638      -16.71440       -6.34300
H         13.42628      -14.07575       -6.54842
H         12.93208      -15.48623       -5.58708
H         13.05914      -15.61518       -7.34841
