65

C          0.83255        0.11595        0.41354
C          2.36177        0.10880        0.36199
C          2.92279       -0.75024       -0.77529
C          4.45292       -0.80281       -0.81369
C          5.00394       -1.63857       -1.97262
C          6.53001       -1.77269       -1.97165
C          7.06264       -2.58571       -3.15540
C          8.57423       -2.83016       -3.11523
C          9.08366       -3.61945       -4.32499
C         10.56718       -3.99250       -4.24611
C         11.04838       -4.76139       -5.48149
C         12.48864       -5.25045       -5.40325
O         12.73503       -6.16921       -4.30362
C         12.11671       -7.41229       -4.44086
N         12.93314       -8.30008       -3.58855
C         12.51328       -9.34018       -2.85471
N         13.10591       -9.78316       -1.71159
C         12.40272      -10.90358       -1.27636
N         11.40836      -11.15597       -2.10086
N         11.48261      -10.19042       -3.07711
C         10.63009      -10.34136       -4.27461
C         11.37690      -10.96746       -5.45951
C         11.91713      -12.38581       -5.22466
C         10.83753      -13.43843       -4.96108
C         12.74205      -11.62916       -0.12137
C         13.05255      -12.23760        0.87808
H          0.45835        0.74370        1.23376
H          0.43555       -0.89937        0.56304
H          0.40439        0.50228       -0.52351
H          2.76122       -0.25728        1.32308
H          2.73382        1.14143        0.25316
H          2.54512       -0.36690       -1.73977
H          2.52705       -1.77746       -0.68372
H          4.82563       -1.21259        0.14183
H          4.85450        0.22348       -0.87993
H          4.67633       -1.19479       -2.92906
H          4.55477       -2.64710       -1.93865
H          6.85158       -2.24660       -1.02729
H          6.98991       -0.76924       -1.97940
H          6.79983       -2.07241       -4.09670
H          6.54311       -3.56004       -3.18819
H          8.82928       -3.37383       -2.18813
H          9.10585       -1.86479       -3.05670
H          8.90002       -3.03686       -5.24412
H          8.48635       -4.54315       -4.43075
H         10.74470       -4.59471       -3.33890
H         11.17737       -3.08102       -4.12712
H         10.97734       -4.11864       -6.37473
H         10.37355       -5.61238       -5.68449
H         13.17935       -4.42016       -5.20498
H         12.79485       -5.74235       -6.34390
H         12.13387       -7.75958       -5.49249
H         11.07585       -7.41629       -4.06719
H         13.80580       -7.85035       -3.31684
H         13.87302       -9.33413       -1.21877
H         10.21664       -9.35959       -4.53316
H          9.79825      -10.97073       -3.93754
H         12.19787      -10.29958       -5.76674
H         10.66147      -10.97669       -6.29777
H         12.64368      -12.37911       -4.39508
H         12.49470      -12.66797       -6.11752
H         10.29563      -13.25524       -4.02272
H         11.28467      -14.43762       -4.88285
H         10.10346      -13.46873       -5.77933
H         13.31829      -12.78431        1.76167
