36

O          4.98531       -0.43576       -1.28969
C          4.58736       -1.27693       -0.21335
C          3.05598       -1.31037       -0.20879
N          2.59418       -1.74191       -1.55144
N          2.81047       -3.00862       -1.99021
C          2.35072       -3.04636       -3.22750
N          1.85369       -1.80761       -3.56523
C          2.01546       -0.98125       -2.49520
C          1.63835        0.36297       -2.41520
C          1.30074        1.52503       -2.36288
C          2.39470       -4.22270       -4.13528
C          3.44446       -4.06011       -5.26148
C          3.57633       -5.29666       -6.16393
C          2.33020       -5.55617       -7.01810
S          2.61847       -6.98105       -8.10619
O          3.61828       -6.63287       -9.08674
O          2.72446       -8.17168       -7.29675
Cl         0.78036       -7.05098       -9.08216
C          2.46983       -2.20675        0.87769
H          5.94805       -0.32359       -1.26759
H          4.91094       -0.88330        0.76509
H          4.98061       -2.30291       -0.32531
H          2.68394       -0.27963       -0.11520
H          1.42793       -1.53222       -4.44727
H          1.00594        2.55588       -2.31149
H          1.38843       -4.38488       -4.55335
H          2.63170       -5.09848       -3.51597
H          4.42279       -3.86099       -4.79991
H          3.20340       -3.17630       -5.87587
H          3.79789       -6.18431       -5.55197
H          4.44014       -5.14505       -6.82682
H          2.09291       -4.71676       -7.68648
H          1.44072       -5.82539       -6.43254
H          2.81571       -3.24230        0.77180
H          1.37345       -2.19565        0.84914
H          2.78642       -1.83357        1.85957
