67

C          1.65576        0.60224        0.64797
C          2.97191        0.14901        1.25275
O          4.10807        0.89163        0.70941
P          4.79311        0.44855       -0.68382
O          4.40654       -0.89541       -1.17014
O          4.54022        1.67110       -1.70154
C          3.36940        1.68281       -2.57424
C          3.74616        2.36429       -3.87365
C          6.56545        0.69210       -0.35194
C          6.94092        2.03787        0.27943
C          8.46996        2.24909        0.30197
C          8.88480        3.50743        1.01727
C          8.40379        4.77782        0.66663
C          8.80000        5.89980        1.38482
C          9.69232        5.80287        2.45294
N         10.17661        4.55657        2.76679
C          9.77601        3.45391        2.08198
C         11.16732        4.41330        3.88616
C         11.82804        3.04973        4.03226
C         12.91359        3.09697        5.13169
C         13.62196        1.76717        5.26574
C         14.77097        1.49332        4.50980
C         15.40421        0.25172        4.60080
C         14.89369       -0.73324        5.45040
C         13.75141       -0.46921        6.21094
C         13.12058        0.77333        6.11841
C         10.14793        6.97854        3.27285
C          9.49385        8.30954        2.89255
C          9.90826        9.49391        3.70754
C         10.76973        9.60862        4.72622
F         11.47386        8.59314        5.23876
F         11.02956       10.74115        5.34979
F          9.27916       10.62969        3.31291
H          0.82223        0.11291        1.17178
H          1.58877        0.32549       -0.41251
H          1.52853        1.68903        0.74417
H          3.14101       -0.92345        1.08302
H          3.00833        0.35145        2.33115
H          2.56764        2.22611       -2.05031
H          3.04574        0.64531       -2.74261
H          4.10359        3.38797       -3.69715
H          2.86797        2.41901       -4.53183
H          4.53096        1.80230       -4.39695
H          7.06366        0.55452       -1.32421
H          6.87173       -0.14865        0.28900
H          6.54198        2.09117        1.30335
H          6.46399        2.85233       -0.28646
H          8.84401        2.29219       -0.73481
H          8.96300        1.38443        0.77148
H          7.71296        4.89142       -0.16990
H          8.41360        6.87931        1.11281
H         10.20421        2.51166        2.41199
H         10.64292        4.69082        4.81344
H         11.94059        5.17412        3.71120
H         12.30309        2.74598        3.08583
H         11.09521        2.27315        4.30064
H         12.45260        3.37573        6.09248
H         13.64468        3.88442        4.88849
H         15.18383        2.26376        3.85370
H         16.30313        0.05667        4.01488
H         15.39031       -1.70079        5.52753
H         13.35586       -1.22961        6.88526
H         12.23617        0.97725        6.72719
H         11.24354        7.06784        3.18724
H          9.95642        6.76155        4.33596
H          8.39544        8.23127        2.97450
H          9.71035        8.55494        1.83806
