82

N          2.67305        1.11881        1.37920
C          3.26757        2.46889        1.43084
C          3.89189        2.83342        0.07865
C          5.14207        2.00228       -0.23587
C          5.56796        2.08321       -1.70752
C          6.90132        1.38748       -1.98685
O          7.36373        1.49713       -3.31959
C          6.72025        0.60153       -4.22415
C          7.24678        0.83052       -5.62882
C          6.87591        2.18293       -6.24467
C          7.39594        2.29337       -7.68281
C          7.04295        3.60552       -8.38918
C          7.54740        3.64096       -9.83629
C          7.19019        4.91970      -10.59970
C          7.67437        4.90233      -12.05392
C          7.30819        6.15939      -12.84852
C          7.77772        6.11724      -14.30758
C          7.40262        7.36897      -15.10463
N          7.02139       -0.77650       -3.80177
C          7.06716       -1.04394       -2.48304
N          7.33350       -2.29010       -2.03264
C          6.80638       -3.50984       -2.65576
C          5.60297       -4.05127       -1.87105
O          4.51889       -3.08142       -1.87309
C          4.40876       -2.24018       -0.80835
O          5.27349       -2.10984        0.04652
C          3.10804       -1.48418       -0.82627
S          1.76212       -2.51846       -0.13467
C          5.06523       -5.33315       -2.50014
O          4.18362       -6.01890       -1.59830
C          4.81456       -6.75836       -0.63246
O          6.01874       -6.90465       -0.58059
C          3.82086       -7.29521        0.36499
S          3.63710       -6.08086        1.72844
N          6.84872       -0.05000       -1.61915
H          1.73274        1.16522        0.98194
H          2.55710        0.74507        2.32122
H          4.04870        2.46500        2.20705
H          2.54278        3.24976        1.72057
H          4.13868        3.90644        0.06288
H          3.13489        2.68088       -0.71029
H          4.92628        0.95794        0.04514
H          5.97032        2.33978        0.41137
H          5.69642        3.13254       -2.01505
H          4.77963        1.65246       -2.34619
H          7.69618        1.85009       -1.37920
H          5.62548        0.73996       -4.17771
H          6.84948        0.02053       -6.26428
H          8.34376        0.71612       -5.60158
H          7.28775        2.99657       -5.62804
H          5.77909        2.30479       -6.23568
H          6.99733        1.45010       -8.27435
H          8.49268        2.16663       -7.68041
H          7.46552        4.45569       -7.82634
H          5.94794        3.74634       -8.37847
H          7.13775        2.77120      -10.37995
H          8.64362        3.50804       -9.84154
H          7.61907        5.79329      -10.07834
H          6.09549        5.06341      -10.58100
H          7.25457        4.01669      -12.56317
H          8.77020        4.76631      -12.07094
H          7.73875        7.04685      -12.35186
H          6.21321        6.30192      -12.82304
H          7.35088        5.22597      -14.79835
H          8.87197        5.97830      -14.33179
H          6.31231        7.51437      -15.13058
H          7.75298        7.30455      -16.14387
H          7.84508        8.27328      -14.66087
H          7.59440       -1.34407       -4.42038
H          7.39297       -2.34993       -1.01626
H          7.59437       -4.27551       -2.67569
H          6.51788       -3.28711       -3.69173
H          5.89732       -4.23926       -0.82766
H          2.79978       -1.26814       -1.85706
H          3.19827       -0.55950       -0.23698
H          2.23714       -2.52297        1.13369
H          5.90058       -5.99192       -2.77736
H          4.45710       -5.10127       -3.38345
H          4.16074       -8.25963        0.75600
H          2.82451       -7.39702       -0.07943
H          4.85600       -6.30373        2.27441
H          6.56376       -0.30088       -0.67264
