78

C          0.39581       -2.13339       -0.76073
C          1.83927       -1.68454       -0.52026
C          2.84018       -2.84570       -0.50046
C          4.28757       -2.39902       -0.26930
C          5.29109       -3.55596       -0.24538
C          6.73978       -3.09525       -0.04824
C          7.74390       -4.25565       -0.05730
C          9.17783       -3.77304        0.05245
O         10.06283       -4.91738       -0.03154
C         11.42940       -4.58619       -0.18400
C         12.14009       -5.89292       -0.51377
N         11.67444       -6.96697        0.45958
C         11.52350       -8.27118       -0.40580
O         12.15779       -7.93261       -1.59292
C         11.80668       -6.55960       -1.86807
C         12.57066       -6.02687       -3.06850
C         11.75887       -4.97391       -3.83507
O         12.58480       -4.38190       -4.80525
Si        12.24602       -2.88319       -5.51500
C         10.62292       -2.98459       -6.45481
C         12.11433       -1.59031       -4.14902
C         13.70484       -2.56721       -6.63686
C         12.16049       -9.48337        0.23799
C         11.74063      -10.74120       -0.53786
O         10.62952      -10.88347       -1.00533
O         12.74773      -11.61644       -0.58873
C         12.47180      -12.88938       -1.27416
C         13.75069      -13.70347       -1.26739
C         13.56391      -15.06785       -1.94660
C         14.84722      -15.90191       -1.95865
H         -0.29505       -1.27954       -0.76816
H          0.05693       -2.82732        0.02288
H          0.29384       -2.65091       -1.72617
H          1.90210       -1.13696        0.43550
H          2.13633       -0.96349       -1.30058
H          2.77580       -3.39864       -1.45453
H          2.54834       -3.56541        0.28477
H          4.35011       -1.84111        0.68134
H          4.57706       -1.68297       -1.05868
H          5.21701       -4.12395       -1.18928
H          5.01871       -4.26395        0.55657
H          6.82313       -2.53889        0.90087
H          7.00230       -2.37857       -0.84588
H          7.63833       -4.83106       -0.99169
H          7.52575       -4.94951        0.77112
H          9.36119       -3.24178        1.00395
H          9.42398       -3.08369       -0.77577
H         11.84477       -4.12594        0.73347
H         11.59155       -3.87210       -1.01162
H         13.22933       -5.79684       -0.41676
H         10.75313       -6.65829        0.82021
H         12.32618       -7.09995        1.23973
H         10.43433       -8.40060       -0.53250
H         10.71474       -6.50182       -2.04258
H         12.79512       -6.86839       -3.73860
H         13.53569       -5.59192       -2.76722
H         11.36125       -4.21507       -3.12963
H         10.87890       -5.46047       -4.29945
H          9.78261       -3.23578       -5.79107
H         10.67014       -3.74460       -7.24695
H         10.38893       -2.02027       -6.92841
H         11.24379       -1.75584       -3.49740
H         11.99850       -0.58822       -4.58647
H         13.01933       -1.57626       -3.52497
H         13.78158       -3.34700       -7.40677
H         14.64529       -2.55475       -6.06939
H         13.60258       -1.59863       -7.14592
H         11.78854       -9.60689        1.26797
H         13.25414       -9.38593        0.26317
H         12.12431      -12.65670       -2.29097
H         11.65171      -13.39018       -0.73870
H         14.08413      -13.84685       -0.22696
H         14.54433      -13.13630       -1.78012
H         13.21152      -14.91880       -2.98081
H         12.76571      -15.62691       -1.43057
H         15.65119      -15.39154       -2.50944
H         14.68122      -16.87464       -2.43981
H         15.21202      -16.09274       -0.93891
