54

C          0.49694        0.59533        0.60970
C          1.99454        0.37654        0.38386
C          2.51241        1.02167       -0.90759
C          4.00572        0.76995       -1.14254
C          4.52900        1.44371       -2.39991
O          5.91695        1.11435       -2.54871
C          6.53338        1.73302       -3.64930
C          7.99318        1.27676       -3.65239
C          8.90682        1.82214       -4.75891
C          8.94067        3.36330       -4.80217
N          7.95320        3.69616       -5.86437
C          7.73275        2.68129       -6.63336
C          8.48606        1.46451       -6.23189
C          7.73934        0.14221       -6.54121
C          8.59845       -1.07120       -6.92327
C          9.44934       -1.73077       -5.85158
Br        11.17727       -0.79257       -5.59818
Br         7.31682       -2.47544       -7.50857
C          7.43796        5.05331       -6.07111
C          8.52982        6.00174       -6.59531
O          9.06704        5.34043       -7.74255
C          7.93945        7.37317       -6.90536
H          0.16089        0.12697        1.54435
H         -0.09827        0.16509       -0.20925
H          0.25252        1.66628        0.66943
H          2.21052       -0.70469        0.35900
H          2.56183        0.77791        1.24023
H          2.31798        2.10820       -0.87275
H          1.93227        0.63639       -1.76436
H          4.19735       -0.31237       -1.21838
H          4.58968        1.13212       -0.28120
H          4.41536        2.54446       -2.33368
H          3.97091        1.10389       -3.29506
H          6.45653        2.84054       -3.56406
H          6.01185        1.45918       -4.59427
H          8.01201        0.17708       -3.66900
H          8.43470        1.55747       -2.68340
H          9.91637        1.43457       -4.58076
H          9.91834        3.75427       -5.12506
H          8.65610        3.85576       -3.86367
H          7.07126        2.77989       -7.49679
H          9.40768        1.48526       -6.85319
H          7.06875        0.32475       -7.39269
H          7.08620       -0.13045       -5.70120
H          9.19820       -0.87214       -7.82033
H          9.74660       -2.73883       -6.14767
H          8.96161       -1.75997       -4.87129
H          7.04200        5.41567       -5.11222
H          6.61936        4.99084       -6.80039
H          9.31269        6.10889       -5.81935
H          9.63300        5.96034       -8.22974
H          7.15722        7.30210       -7.67333
H          8.72510        8.04752       -7.27311
H          7.51197        7.83511       -6.00459
