48

C          5.01504        5.00744       -2.19276
C          4.75308        3.78868       -1.33193
O          5.10720        2.60517       -2.07504
C          4.88039        1.39434       -1.34190
C          5.10940        0.21366       -2.28287
C          6.56996       -0.04791       -2.71321
C          7.43261       -0.70647       -1.58694
N          8.65379        0.11033       -1.59267
C          8.45780        1.24027       -2.26510
N          9.34498        2.27355       -2.30220
C         10.56502        2.29361       -1.58643
O         10.90985        1.39559       -0.84147
O         11.20890        3.41689       -1.88865
C         12.52778        3.63807       -1.25578
C         12.43157        4.76858       -0.25438
N          7.30257        1.24893       -2.93953
Si         6.63862       -1.08786       -4.37406
C          5.75937       -2.71991       -4.04655
C          5.78684       -0.10129       -5.73032
C          8.45106       -1.36823       -4.80863
H          4.72392        5.91573       -1.64916
H          4.43356        4.96528       -3.12285
H          6.08042        5.09809       -2.44788
H          3.68625        3.72286       -1.05364
H          5.34174        3.82469       -0.39622
H          3.83987        1.37436       -0.97242
H          5.54293        1.35752       -0.45329
H          4.47736        0.37733       -3.16873
H          4.73238       -0.70182       -1.80292
H          7.67596       -1.75539       -1.80106
H          6.95269       -0.66268       -0.59352
H          9.49542       -0.00964       -1.02642
H          9.16754        3.03823       -2.94881
H         13.18613        3.88470       -2.09768
H         12.84592        2.69345       -0.79997
H         12.07064        5.69144       -0.72591
H         13.43276        4.96551        0.15329
H         11.77104        4.50951        0.58317
H          6.72862        2.10367       -2.98516
H          4.69443       -2.57683       -3.81675
H          6.21304       -3.28918       -3.22279
H          5.81639       -3.35367       -4.94344
H          4.71899        0.06256       -5.53193
H          5.85902       -0.65025       -6.68038
H          6.26091        0.87823       -5.88436
H          8.99844       -1.92516       -4.03544
H          8.98074       -0.42316       -4.99417
H          8.51423       -1.95876       -5.73422
