85

N          5.08773       -0.66011        1.39105
C          4.76313        0.43039        2.31994
C          5.53420        1.70656        1.95012
C          5.16875        2.17750        0.53703
C          5.87973        3.44206        0.02266
C          5.45999        4.70983        0.78311
C          5.82767        6.01992        0.07694
C          5.22854        6.11100       -1.33457
C          5.65190        4.89591       -2.15816
N          5.31423        3.61544       -1.42243
C          5.59461        7.42492       -2.04908
C          5.00382        7.56104       -3.45825
C          5.08362        8.98983       -4.01595
P          4.32282        9.04581       -5.67300
O          3.05864        8.28456       -5.77384
O          4.25033       10.62874       -5.93746
C          3.41135       11.13512       -7.02871
C          3.25014       12.62860       -6.84566
O          5.41432        8.45326       -6.70583
C          6.68103        9.11115       -6.98062
C          7.19333        8.61980       -8.32031
C          7.39867        3.23298       -0.15872
C          8.25744        3.28532        1.10845
O          8.09022        4.05970        2.02929
O          9.26909        2.40805        0.99632
C         10.28614        2.43183        2.05879
C          9.96806        1.43920        3.16485
C         11.07099        1.43181        4.23164
C         10.82960        0.40948        5.34647
C         11.89654        0.45712        6.44447
C         11.69469       -0.58961        7.54322
C         12.74418       -0.51471        8.65662
C         12.54669       -1.57352        9.74275
H          4.39393       -1.40492        1.45218
H          5.98327       -1.08492        1.63699
H          4.96935        0.19372        3.37933
H          3.68168        0.62596        2.24735
H          6.61287        1.49352        2.01553
H          5.32032        2.48694        2.69482
H          4.07898        2.36659        0.51258
H          5.35972        1.33236       -0.14807
H          5.92690        4.67316        1.77376
H          4.36697        4.66624        0.93330
H          6.92300        6.13430        0.02809
H          5.46272        6.86297        0.68019
H          4.12465        6.08029       -1.24675
H          6.73390        4.88823       -2.34783
H          5.13549        4.84051       -3.12538
H          5.60342        2.79918       -1.97955
H          4.28919        3.55211       -1.33654
H          6.69286        7.53042       -2.08186
H          5.22915        8.24935       -1.41659
H          3.94424        7.25821       -3.45486
H          5.51489        6.87750       -4.15614
H          6.12065        9.35647       -4.06393
H          4.52152        9.68874       -3.37867
H          2.44734       10.60830       -6.99437
H          3.90496       10.89715       -7.98390
H          2.74312       12.85643       -5.89927
H          2.64236       13.03307       -7.66672
H          4.22229       13.13859       -6.85491
H          7.38930        8.86123       -6.17239
H          6.53392       10.20176       -6.98319
H          7.32939        7.53061       -8.31356
H          8.16170        9.08869       -8.54277
H          6.49145        8.87611       -9.12421
H          7.82254        4.02352       -0.79766
H          7.58440        2.27603       -0.66872
H         10.35655        3.45722        2.44446
H         11.21383        2.16719        1.53566
H          9.85936        0.43243        2.72977
H          9.00504        1.70472        3.62942
H         11.15652        2.43934        4.67292
H         12.04333        1.22283        3.75330
H         10.79418       -0.60423        4.91095
H          9.83649        0.58487        5.79583
H         11.90637        1.46431        6.89636
H         12.89330        0.31914        5.99000
H         11.71043       -1.59857        7.09474
H         10.68910       -0.46927        7.98384
H         12.71923        0.49065        9.10978
H         13.74884       -0.62243        8.21404
H         11.56328       -1.47049       10.22509
H         13.31138       -1.49318       10.52713
H         12.60490       -2.58914        9.32397
