58

C          3.18675        1.70766        1.19836
C          3.78014        0.50522        0.45992
C          4.33826        0.87208       -0.92394
C          4.87081       -0.35361       -1.64830
O          5.32463       -0.01117       -3.00896
C          6.62198        0.24729       -3.17279
O          7.49285        0.21166       -2.32498
C          6.88432        0.61189       -4.63386
N          8.34347        0.81434       -4.88168
C          9.13686       -0.47303       -4.82956
C         10.62351       -0.22360       -4.53209
C         10.84787        0.74668       -3.36879
O         10.13185        1.76266       -3.25841
N         11.87602        0.45021       -2.54316
C         12.40839        1.17472       -1.44086
C         11.83184        2.34818       -0.93233
C         12.44081        2.98158        0.15310
C         13.60202        2.46610        0.73283
C         14.16608        1.29325        0.22289
C         13.57258        0.64818       -0.85887
C          8.58001        1.57221       -6.15939
O          7.93087        2.79774       -5.99466
C          8.37434        3.84033       -6.87848
O          8.03768        3.57804       -8.20387
C          9.10875        3.38067       -9.14447
C          8.80525        2.21102      -10.05422
O          8.94251        0.98826       -9.31026
H          2.79924        1.41416        2.18272
H          2.35564        2.15398        0.63343
H          3.94055        2.49223        1.35847
H          3.00710       -0.27304        0.34646
H          4.58065        0.05435        1.06923
H          5.14665        1.61312       -0.81522
H          3.54911        1.33885       -1.53477
H          4.08449       -1.09969       -1.81879
H          5.71071       -0.81587       -1.11373
H          6.37205        1.55190       -4.87424
H          6.50248       -0.16724       -5.30866
H          8.80579        1.40052       -4.09922
H          9.00392       -1.00064       -5.78390
H          8.69397       -1.06962       -4.02515
H         11.13488        0.19895       -5.41164
H         11.08808       -1.20190       -4.34639
H         12.38025       -0.40667       -2.75499
H         10.92760        2.75306       -1.37635
H         11.99302        3.89309        0.54980
H         14.06507        2.97325        1.57909
H         15.07219        0.87899        0.66473
H         14.01641       -0.26736       -1.25806
H          8.19483        0.98417       -7.00866
H          9.67068        1.69815       -6.26960
H          9.46627        3.98075       -6.76042
H          7.82477        4.72097       -6.52099
H         10.06087        3.20922       -8.61282
H          9.21417        4.29165       -9.75625
H          9.51511        2.23965      -10.89953
H          7.78225        2.31484      -10.45449
H          8.76006        0.25187       -9.91342
