136

C          1.03988       -6.82693        5.45912
C          2.54403       -6.86436        5.74198
C          3.09798       -5.52679        6.24427
C          4.60382       -5.54418        6.52554
C          5.14854       -4.19641        7.00872
C          6.65363       -4.20148        7.29402
C          7.19222       -2.84121        7.74874
C          8.69653       -2.83859        8.03806
C          9.23933       -1.46477        8.44516
C         10.74436       -1.46407        8.73080
C         11.30911       -0.07801        9.05998
C         12.81650       -0.09765        9.33497
C         13.42521        1.29215        9.55355
C         14.93353        1.22899        9.81159
C         15.59292        2.62712        9.90994
C         17.06732        2.53434       10.14530
N         17.84706        2.09258        9.12248
C         19.18071        1.88077        9.23427
C         19.85331        2.14437       10.41145
C         19.09891        2.64462       11.51321
C         17.71356        2.80683       11.34549
C         19.72780        3.02907       12.81987
C         20.48450        4.38245       12.74759
C         19.60293        5.58690       12.40540
C         20.37840        6.91275       12.33877
C         21.48710        6.96988       11.27046
C         21.03931        6.67388        9.82929
C         20.02070        7.67041        9.26387
C         19.65857        7.42352        7.79582
C         18.72089        8.48647        7.21349
C         18.35819        8.26248        5.74195
C         17.47723        9.37062        5.15491
C         17.09950        9.15101        3.68572
C         16.23875       10.27754        3.10785
C         21.35254        1.87058       10.44572
O         21.78089        1.13249       11.57011
C         21.25453       -0.20534       11.68915
C         21.77191       -1.19898       10.65181
C         21.44673       -2.64109       11.06555
C         21.95684       -3.70618       10.08861
C         21.75293       -5.13251       10.61006
C         22.24555       -6.22540        9.65607
C         22.13670       -7.63461       10.24846
C         22.60674       -8.74610        9.30496
C         22.57025      -10.13877        9.94295
C         22.95422      -11.27157        8.98603
C         22.97164      -12.65359        9.64972
C         23.29609      -13.79234        8.67962
H          0.67131       -7.79805        5.10089
H          0.79603       -6.07581        4.69287
H          0.47000       -6.56979        6.36480
H          3.08463       -7.15983        4.82654
H          2.76089       -7.64998        6.48593
H          2.55898       -5.23207        7.16240
H          2.87555       -4.74029        5.50113
H          5.14257       -5.84847        5.61050
H          4.82682       -6.32102        7.27827
H          4.60626       -3.88988        7.92075
H          4.92478       -3.42296        6.25270
H          7.19604       -4.52288        6.38704
H          6.87809       -4.96094        8.06378
H          6.64647       -2.51507        8.65177
H          6.96968       -2.08594        6.97423
H          9.23998       -3.19227        7.14379
H          8.91763       -3.57143        8.83402
H          8.69656       -1.10385        9.33639
H          9.02083       -0.73702        7.64378
H         11.27962       -1.87156        7.85458
H         10.95976       -2.15601        9.56392
H         10.78055        0.34101        9.93375
H         11.09973        0.60811        8.22063
H         13.33036       -0.58393        8.48640
H         13.02043       -0.73153       10.21536
H         12.92669        1.79225       10.40136
H         13.22971        1.92173        8.66813
H         15.41216        0.65332        8.99939
H         15.13671        0.67072       10.73976
H         15.14086        3.20226       10.72921
H         15.40149        3.19356        8.98279
H         17.39727        1.88893        8.22961
H         19.68013        1.49601        8.34540
H         17.11430        3.17125       12.18001
H         20.44412        2.25283       13.11893
H         18.94329        3.09354       13.58751
H         21.31227        4.29814       12.02899
H         20.95908        4.53465       13.72912
H         18.80377        5.67764       13.16011
H         19.09035        5.41760       11.44287
H         20.82870        7.11676       13.32383
H         19.65766        7.72725       12.16874
H         22.30154        6.27906       11.54220
H         21.93846        7.97437       11.30089
H         20.62834        5.64874        9.75894
H         21.93255        6.67428        9.18313
H         20.42920        8.69070        9.36762
H         19.09741        7.65793        9.86846
H         19.19364        6.42497        7.69337
H         20.58337        7.38675        7.19365
H         19.19514        9.47738        7.32137
H         17.79616        8.53152        7.81612
H         17.84489        7.28978        5.63294
H         19.28487        8.18200        5.14664
H         18.00013       10.33792        5.25386
H         16.55625        9.46559        5.75721
H         16.56512        8.19057        3.58764
H         18.01986        9.04614        3.08665
H         15.29720       10.38908        3.66583
H         15.98081       10.09008        2.05657
H         16.76369       11.24300        3.15227
H         21.89861        2.82469       10.49271
H         21.64176        1.38143        9.49726
H         20.14718       -0.18114       11.69016
H         21.57276       -0.51712       12.69401
H         22.86263       -1.07316       10.55842
H         21.34047       -0.99462        9.65632
H         20.35580       -2.75569       11.19236
H         21.88595       -2.82856       12.06052
H         23.03125       -3.53981        9.89721
H         21.45256       -3.58873        9.11301
H         20.68294       -5.29502       10.83006
H         22.27651       -5.23566       11.57693
H         23.29713       -6.02630        9.38454
H         21.67482       -6.17558        8.71180
H         21.09012       -7.82815       10.54369
H         22.72483       -7.67763       11.18263
H         23.63398       -8.52785        8.96340
H         21.97976       -8.74223        8.39545
H         21.55868      -10.33052       10.34302
H         23.24557      -10.15335       10.81688
H         23.94781      -11.06480        8.54985
H         22.24978      -11.28422        8.13539
H         21.99169      -12.84033       10.12141
H         23.70520      -12.64915       10.47367
H         22.55327      -13.85026        7.87022
H         23.30837      -14.76571        9.18896
H         24.28187      -13.65071        8.21169
