72

N          0.00928        0.27918        1.50241
C          1.28612        0.76963        0.98444
C          2.33699        0.81091        2.09766
C          3.70866        1.26219        1.58789
C          4.75726        1.27666        2.70705
C          6.21886        1.64851        2.34242
C          6.68680        0.90128        1.08077
C          8.20120        0.90130        0.85212
C          8.67449        0.21598       -0.43357
C          9.02567       -1.32326       -0.37394
C          7.93699       -2.41195       -0.02131
C          6.64042       -2.62379       -0.89866
C          6.72995       -2.98778       -2.43480
C          7.49069       -4.29959       -2.85888
F          7.04722       -5.35550       -2.15548
F          7.25953       -4.51317       -4.16368
F          8.81464       -4.16952       -2.67199
F          5.43955       -3.12727       -2.83757
F          7.27938       -1.94365       -3.10136
F          5.94022       -3.60574       -0.27816
F          5.89796       -1.47774       -0.82872
F          8.58277       -3.59858        0.04285
F          7.47664       -2.12297        1.24280
F          9.58674       -1.66792       -1.55499
F          9.97167       -1.45643        0.60702
F          7.79770        0.42905       -1.46373
F          9.86383        0.79850       -0.79900
N          7.06360        1.25941        3.52097
C          7.31082        2.31746        4.30668
N          7.85227        2.24606        5.52767
N          6.93803        3.44860        3.69987
C          6.53120        3.19334        2.29861
C          5.45618        4.17868        1.85336
C          5.28860        4.30273        0.33588
C          4.54756        5.61685        0.02153
O          4.75492        6.62435        0.69249
N          3.69017        5.54157       -1.04066
C          2.88132        6.54957       -1.62274
C          2.06127        6.15849       -2.69408
C          1.23536        7.08727       -3.32226
C          1.21734        8.41587       -2.88849
C          2.03469        8.80007       -1.82350
C          2.86868        7.88193       -1.18148
H         -0.63787        0.07275        0.74219
H         -0.44383        0.98073        2.08934
H          1.23017        1.77021        0.50362
H          1.62035        0.06812        0.20313
H          2.40423       -0.19105        2.55060
H          1.99567        1.49054        2.89800
H          3.60861        2.25916        1.13532
H          4.02959        0.58542        0.78055
H          4.79665        0.25957        3.13569
H          4.41928        1.93156        3.52767
H          6.18325        1.34655        0.21278
H          6.31190       -0.12627        1.15048
H          8.73899        0.44745        1.69510
H          8.58342        1.92844        0.75806
H          6.98208        0.32453        3.91234
H          8.11503        1.35666        5.93336
H          8.05166        3.08106        6.06426
H          7.22195        4.37062        4.01551
H          7.41992        3.34736        1.66127
H          5.74871        5.18402        2.20002
H          4.49560        3.96125        2.34220
H          4.77787        3.43496       -0.10493
H          6.27851        4.36922       -0.14753
H          3.61763        4.63459       -1.49215
H          2.07455        5.12061       -3.03697
H          0.60411        6.76988       -4.15261
H          0.57229        9.14503       -3.37834
H          2.02894        9.83443       -1.47835
H          3.50231        8.18601       -0.35334
