68

F          3.15181       -2.92016        0.39881
C          3.14284       -1.93937       -0.63622
C          3.84880       -0.68127       -0.16278
C          5.33790       -0.85580        0.14962
N          5.52358       -1.74661        1.30156
C          6.61027       -1.79091        2.09151
N          6.60644       -2.61369        3.16220
C          7.72527       -2.71260        4.10643
C          9.05160       -2.37790        3.40549
C          8.85961       -1.00334        2.72379
N          7.68363       -1.03941        1.83562
C         10.06937       -0.43294        1.95835
C         10.37179       -1.01661        0.55992
O         10.53338        0.03590       -0.43195
C          9.40816        0.58018       -0.93516
O          8.28065        0.24518       -0.57577
C          9.68794        1.63445       -1.97405
C          8.93520        2.94897       -1.69120
C          9.35888        3.62031       -0.38229
C          9.56500       -3.49646        2.48378
C          9.90010       -4.79603        3.21571
O         10.66672       -5.58700        2.32998
C         11.14671       -6.79078        2.92944
C         12.07186       -7.47186        1.93049
O         12.67938       -8.55551        2.60680
C         13.62585       -9.25467        1.80381
C         14.29767      -10.29252        2.69096
O         15.25792      -10.97026        1.90050
C         15.97316      -11.95034        2.63869
H          2.08876       -1.74640       -0.87729
H          3.64016       -2.39975       -1.50381
H          3.32354       -0.26899        0.71273
H          3.75775        0.06650       -0.96624
H          5.77871        0.12190        0.38615
H          5.87220       -1.24713       -0.73274
H          4.81047       -2.46528        1.41718
H          5.72441       -3.04125        3.42033
H          7.73520       -3.73440        4.50617
H          7.56078       -2.02741        4.95390
H          9.79396       -2.22584        4.20569
H          8.64962       -0.28259        3.53360
H          7.77814       -0.56995        0.91641
H         10.95025       -0.53048        2.60721
H          9.91139        0.64878        1.83884
H          9.59053       -1.70400        0.21139
H         11.33309       -1.53872        0.53583
H          9.35824        1.21793       -2.94004
H         10.77169        1.79705       -2.03854
H          7.85351        2.74724       -1.68242
H          9.11896        3.62694       -2.53693
H          9.12564        2.99181        0.49128
H          8.83561        4.57491       -0.24222
H         10.43865        3.82713       -0.36609
H         10.50133       -3.17211        2.00849
H          8.85573       -3.71010        1.66901
H          8.98602       -5.34186        3.52760
H         10.47989       -4.57753        4.13736
H         10.30602       -7.45661        3.20020
H         11.71283       -6.56351        3.85218
H         12.83119       -6.74531        1.57968
H         11.50283       -7.81675        1.04498
H         14.38575       -8.55803        1.40170
H         13.12877       -9.74679        0.94656
H         13.54095      -10.99624        3.09080
H         14.77602       -9.78947        3.55465
H         16.68720      -12.41381        1.94782
H         15.29833      -12.72952        3.03849
H         16.52708      -11.49703        3.48161
