45

C          1.40020       -1.29749       -0.34307
O          2.80596       -0.93950       -0.31273
C          3.24906       -0.25209       -1.37732
O          2.57754        0.06899       -2.33574
C          4.75832        0.00875       -1.23391
C          5.20000        1.18660       -2.05523
C          5.26031        1.01869       -3.43739
C          5.57237        2.08492       -4.29390
C          5.60336        1.98106       -5.70998
C          5.88369        3.06896       -6.48866
N          6.15515        4.28825       -5.89172
C          6.14775        4.44259       -4.55104
C          5.86365        3.36769       -3.70692
C          5.83653        3.52111       -2.30008
C          5.49699        2.46558       -1.46754
C          5.39376        2.73127        0.00764
C          4.02161        3.36693        0.43172
N          2.93813        2.55921       -0.13510
N          4.00792        3.35876        1.88837
N          3.98151        4.74289       -0.08043
C          6.36226        5.48726       -6.75534
C          5.01483        6.22231       -7.04885
F          5.26140        7.22787       -7.91467
F          4.15443        5.33182       -7.61885
F          7.18722        6.33705       -6.10555
F          6.94323        5.08866       -7.89807
H          1.23078       -1.87059        0.57203
H          1.17831       -1.90216       -1.23075
H          0.78243       -0.39097       -0.35475
H          5.26049       -0.90441       -1.59362
H          4.99409        0.10585       -0.17119
H          5.03277        0.04399       -3.86982
H          5.39398        1.02954       -6.19819
H          5.91334        3.04978       -7.57339
H          6.37756        5.43559       -4.16938
H          6.05694        4.49567       -1.86569
H          6.18054        3.43129        0.31749
H          5.53180        1.81664        0.59468
H          2.81598        2.73769       -1.13478
H          2.05451        2.77312        0.32916
H          3.93427        2.40829        2.25602
H          3.22156        3.90098        2.24970
H          3.02580        5.10186       -0.05936
H          4.55353        5.35190        0.51038
H          4.56878        6.62529       -6.12308
