58

N          0.76521        0.99963       -1.65275
C          2.19427        1.09001       -1.37257
C          2.40358        1.71828        0.01680
C          3.87185        1.64637        0.40331
N          4.30037        2.39989        1.65874
C          4.25182        3.91964        1.55726
C          4.99816        4.54022        2.74069
O          4.48968        4.01525        3.98433
C          4.53547        2.61090        4.08897
C          3.71331        1.91764        2.97806
C          2.21310        2.21505        3.14426
O          1.62268        3.16622        2.67802
O          1.69956        1.28144        3.95047
C          0.28720        1.46529        4.34407
C         -0.03370        0.42138        5.38772
C          6.53005        4.46561        2.66325
C          7.12029        5.57175        3.57333
O          6.48956        6.62130        3.70075
N          8.32539        5.34121        4.16592
C          9.11199        4.11603        4.00569
C          8.79285        3.02990        5.04168
C          9.63086        1.76268        4.84776
C          9.28731        0.65497        5.84645
C          8.88550        6.37350        5.03851
H          0.58816        0.39844       -2.45651
H          0.36959        1.91395       -1.87514
H          2.77863        1.66480       -2.12080
H          2.60055        0.06586       -1.37669
H          1.77291        1.17128        0.73052
H          2.04864        2.75918        0.00608
H          4.50874        2.06065       -0.39310
H          4.18150        0.60422        0.57299
H          5.30317        2.17453        1.74796
H          3.19592        4.20216        1.56930
H          4.71377        4.19204        0.59983
H          4.74412        5.61073        2.77500
H          4.11616        2.34735        5.06805
H          5.57300        2.21899        4.05539
H          3.87019        0.83137        3.02145
H         -0.32068        1.35842        3.43493
H          0.17598        2.49261        4.71592
H          0.10579       -0.59446        4.99646
H         -1.08499        0.52716        5.68723
H          0.58729        0.54530        6.28420
H          6.85541        4.69078        1.63404
H          6.91540        3.46627        2.90916
H         10.17210        4.40188        4.08168
H          8.98781        3.72572        2.98506
H          7.71776        2.78150        4.98716
H          8.95085        3.43427        6.05432
H         10.69979        2.01756        4.93315
H          9.49481        1.38849        3.81780
H          9.45781        0.98410        6.88119
H          9.90060       -0.23982        5.67770
H          8.23148        0.35449        5.76586
H          8.13683        7.15835        5.17712
H          9.78882        6.81158        4.58814
H          9.14963        5.94270        6.01441
