83

C          0.05704        8.52517        1.38768
C          1.58338        8.45934        1.48367
C          2.25156        7.93226        0.20878
C          3.78103        7.89709        0.28753
C          4.45591        7.37467       -0.98499
C          5.98597        7.38904       -0.91063
C          6.67712        6.87237       -2.17677
C          8.20583        6.92434       -2.09213
C          8.92300        6.42578       -3.35096
C         10.44861        6.51574       -3.24211
C         11.19760        6.05878       -4.50071
C         12.72854        6.09393       -4.36432
C         13.28464        7.51891       -4.23074
C         14.81910        7.62945       -4.08220
C         15.33156        6.80917       -2.87426
C         14.90225        7.39232       -1.53859
N         15.37503        8.82604       -1.46274
C         14.91976        9.68851       -2.63206
C         15.34826        9.11698       -4.00178
C         16.90451        9.11645       -4.19321
C         17.69950       10.17115       -3.40781
C         19.16675       10.24536       -3.83569
S         20.01444       11.42894       -2.76763
O         19.59918       12.77198       -3.11721
O         19.90942       10.93820       -1.41402
O         21.55157       11.22995       -3.23325
C         14.67160       10.03225       -5.10034
C         15.20640       11.47039       -5.18529
O         14.98824       12.18341       -3.96016
C         14.75502        9.44465       -6.53427
C         13.58890        9.86901       -7.43424
H         -0.38981        8.90065        2.31853
H         -0.37456        7.53272        1.18941
H         -0.26336        9.19199        0.57324
H          1.87247        7.81953        2.33487
H          1.98175        9.46253        1.71276
H          1.94558        8.55933       -0.64751
H          1.87115        6.91887       -0.01020
H          4.08828        7.27257        1.14517
H          4.15579        8.91287        0.50640
H          4.12780        7.98153       -1.84730
H          4.10765        6.34724       -1.18996
H          6.31428        6.78606       -0.04541
H          6.32788        8.41930       -0.70560
H          6.33951        7.46439       -3.04553
H          6.35522        5.83527       -2.37474
H          8.54154        6.33057       -1.22318
H          8.51936        7.96377       -1.88542
H          8.58479        7.01241       -4.22275
H          8.63015        5.38198       -3.55629
H         10.78663        5.90842       -2.38225
H         10.71395        7.56022       -2.99967
H         10.88986        6.67826       -5.36095
H         10.89175        5.02967       -4.74625
H         13.19083        5.60803       -5.23938
H         13.00531        5.47853       -3.49164
H         12.78108        8.01935       -3.38760
H         12.96918        8.07849       -5.12144
H         15.27838        7.17005       -4.97189
H         16.42861        6.71956       -2.89109
H         14.95762        5.77943       -2.93050
H         15.33398        6.85757       -0.68284
H         13.81052        7.41765       -1.42140
H         16.40555        8.84390       -1.42947
H         15.05453        9.26098       -0.58832
H         15.30992       10.69513       -2.45520
H         13.82643        9.73929       -2.55616
H         17.10329        9.24438       -5.26749
H         17.31622        8.12514       -3.95320
H         17.70311        9.95103       -2.32516
H         17.24704       11.16716       -3.50736
H         19.28543       10.59905       -4.86885
H         19.69403        9.28836       -3.71799
H         21.83013       12.04649       -3.69218
H         13.60561       10.11819       -4.83217
H         14.67937       11.97395       -6.01067
H         16.28086       11.46414       -5.44765
H         15.15777       13.12556       -4.11418
H         14.78722        8.34802       -6.50352
H         15.70668        9.75043       -6.99947
H         12.62677        9.51991       -7.03147
H         13.70077        9.44342       -8.43970
H         13.52106       10.95936       -7.55000
