58

C          1.27201       -0.72378        0.19002
C          2.79104       -0.54409        0.24491
C          3.25075        0.25489        1.47012
C          4.76903        0.46568        1.51867
C          5.20106        1.25430        2.76756
C          6.70718        1.49049        2.75393
S          7.17089        2.58204        4.17063
C          6.80088        1.64873        5.59800
N          6.03920        2.08424        6.56256
N          6.00099        1.08388        7.50217
C          6.76179        0.09826        7.04052
O          7.30819        0.39572        5.80628
S          7.15608       -1.41866        7.73037
C          6.21588       -1.32877        9.30843
C          6.54493       -2.58637       10.11524
C          5.75822       -2.62829       11.43406
C          6.07470       -3.87511       12.26405
C          8.92763        2.55060        4.06637
N          9.68034        1.71027        3.42136
N         10.97782        2.13359        3.61808
C         10.91461        3.21173        4.38674
O          9.61098        3.54217        4.71064
S         12.15446        4.21840        5.00934
C         13.63972        3.39641        4.30392
C         14.86981        4.16179        4.79516
C         16.16851        3.53500        4.26543
C         17.41573        4.27652        4.75273
H          0.97265       -1.30736       -0.69051
H          0.75577        0.24589        0.13592
H          0.89768       -1.25049        1.08002
H          3.13688       -0.03649       -0.67113
H          3.28224       -1.53149        0.24950
H          2.92264       -0.26234        2.38836
H          2.74737        1.23709        1.47680
H          5.09536        1.00472        0.61353
H          5.28335       -0.50954        1.50256
H          4.91220        0.69718        3.67290
H          4.66613        2.21712        2.79891
H          7.04169        2.07760        1.88499
H          7.31750        0.58146        2.82943
H          5.14870       -1.26357        9.05892
H          6.51839       -0.41074        9.82837
H          7.62607       -2.61861       10.32840
H          6.31283       -3.48584        9.52091
H          4.67861       -2.59141       11.21467
H          5.98414       -1.72261       12.02053
H          5.81539       -4.79524       11.72053
H          5.50873       -3.87464       13.20449
H          7.14320       -3.92812       12.51870
H         13.54799        3.41687        3.21013
H         13.64003        2.35222        4.64272
H         14.88822        4.17098        5.89731
H         14.80919        5.21380        4.47110
H         16.14585        3.52630        3.16354
H         16.21637        2.47964        4.58026
H         17.41459        5.32469        4.42052
H         18.32895        3.80658        4.36543
H         17.47989        4.27449        5.85037
