88

C         23.33806        8.40455       10.37645
C         22.88330        6.97227       10.08500
C         21.35980        6.81325       10.10794
C         20.86325        5.39145        9.82519
C         19.33587        5.27550        9.85821
C         18.79552        3.87826        9.54419
C         17.26867        3.79138        9.64439
C         16.71135        2.40740        9.29090
C         15.21884        2.20829        9.60799
C         14.24734        3.21850        8.96721
C         14.29599        3.19349        7.44494
O         13.22411        3.95591        6.81043
C         13.23973        5.32293        7.02065
N         14.34367        6.01310        6.24020
C         14.58353        5.70114        4.92507
N         15.78339        5.77432        4.32667
N         15.72671        5.42314        3.01469
C         14.47189        5.11609        2.81898
N         13.70766        5.28441        3.96572
C         12.23930        5.13190        4.07456
C         11.57575        4.80274        2.73296
O         12.05999        3.62110        2.12877
C         11.61883        2.38682        2.73948
C         10.18912        2.00451        2.36391
C          9.69631        0.74832        3.10159
C          9.44862        0.94769        4.60443
C          8.86803       -0.29494        5.28390
C         15.38829        6.60010        6.94905
N         16.62240        6.78401        6.57473
N         17.25160        7.47707        7.61215
C         16.34781        7.64207        8.54211
O         15.11075        7.10188        8.17657
S         16.40462        8.37919       10.09559
C         18.15704        8.94708       10.10518
C         18.35628        9.94615       11.24362
C         18.06774        9.39314       12.64512
C         18.33948       10.41638       13.74986
H         24.43197        8.49604       10.34791
H         23.00488        8.73480       11.37201
H         22.92825        9.11153        9.63896
H         23.33281        6.28401       10.81990
H         23.26572        6.65551        9.10039
H         20.91952        7.50329        9.36535
H         20.98025        7.14154       11.09368
H         21.30315        4.69508       10.55968
H         21.23422        5.06527        8.83814
H         18.90819        5.98951        9.13413
H         18.96959        5.58637       10.85389
H         19.24428        3.14146       10.23224
H         19.11663        3.58026        8.53080
H         16.82793        4.56091        8.98454
H         16.95686        4.06217       10.66867
H         17.27514        1.64335        9.84939
H         16.91200        2.19238        8.22695
H         15.07592        2.25798       10.69865
H         14.92045        1.18963        9.31101
H         14.47449        4.22793        9.34716
H         13.22016        2.98175        9.28479
H         14.14015        2.17511        7.06511
H         15.26638        3.54720        7.05683
H         13.40611        5.62042        8.06346
H         12.27648        5.71874        6.68336
H         16.62599        6.12351        4.82313
H         14.05762        4.73399        1.89296
H         11.82560        6.08231        4.44188
H         12.04143        4.34490        4.81487
H         11.74529        5.61398        2.00897
H         10.48864        4.76554        2.92386
H         11.74506        2.44299        3.83523
H         12.32709        1.63104        2.37173
H         10.14820        1.84860        1.27576
H          9.50209        2.83860        2.58679
H         10.41379       -0.07716        2.95053
H          8.75905        0.41578        2.62887
H          8.76028        1.79958        4.74274
H         10.38661        1.22937        5.11281
H          7.90611       -0.58057        4.83445
H          8.69623       -0.12401        6.35509
H          9.54568       -1.15583        5.18841
H         18.35771        9.39425        9.12413
H         18.78622        8.05881       10.22769
H         17.74918       10.84746       11.05996
H         19.40921       10.26895       11.18672
H         18.67561        8.48797       12.81080
H         17.01524        9.06537       12.70696
H         19.39516       10.72324       13.75675
H         18.10608       10.00568       14.74062
H         17.73137       11.32232       13.61335
