98

C         -1.06229        5.70839       -4.78760
C          0.42790        5.47923       -5.05157
C          1.33857        6.37432       -4.20447
C          2.83238        6.15573       -4.46267
C          3.74033        7.05184       -3.61489
C          5.23367        6.83827       -3.87996
C          6.14423        7.73603       -3.03676
C          7.63594        7.52056       -3.30985
C          8.55292        8.42604       -2.48177
C         10.04168        8.20859       -2.76994
C         10.96699        9.12696       -1.96601
C         12.45272        8.90252       -2.26832
C         13.38196        9.84855       -1.49711
C         14.88016        9.58954       -1.71656
C         15.30621        9.89779       -3.15982
N         16.71459        9.48351       -3.40243
N         17.57802       10.46184       -3.11999
C         18.86746       10.18030       -3.22339
C         19.34059        8.90956       -3.56807
C         18.43066        7.90008       -3.84322
C         17.04692        8.22008       -3.78191
C         15.95582        7.26128       -4.16554
C         15.42221        7.47098       -5.60915
C         16.44653        7.25299       -6.72694
C         15.84902        7.46585       -8.12249
C         16.86907        7.29744       -9.25315
C         16.27534        7.51915      -10.64822
C         17.29841        7.36173      -11.77785
C         16.71098        7.58441      -13.17600
C         17.74038        7.41700      -14.29634
C         18.91728        6.50536       -4.11133
C         18.70639        5.61120       -2.87526
O         17.88630        5.85041       -2.00929
O         19.53477        4.56593       -2.92307
C         19.41449        3.56735       -1.84421
C         18.41749        2.47695       -2.20659
C         18.77413        1.69625       -3.47369
H         -1.68821        5.05241       -5.40823
H         -1.35161        6.74716       -5.00641
H         -1.31655        5.51104       -3.73541
H          0.64394        5.64997       -6.12005
H          0.67844        4.42200       -4.85951
H          1.12381        6.20277       -3.13469
H          1.08654        7.43279       -4.39459
H          3.04643        6.32816       -5.53245
H          3.08456        5.09733       -4.27283
H          3.53068        6.87599       -2.54503
H          3.48476        8.10994       -3.80093
H          5.44164        7.01235       -4.95068
H          5.48962        5.78038       -3.69249
H          5.93976        7.56194       -1.96573
H          5.88831        8.79384       -3.22365
H          7.83603        7.68547       -4.38357
H          7.89320        6.46434       -3.11482
H          8.36022        8.26004       -1.40753
H          8.29454        9.48198       -2.67472
H         10.22744        8.36000       -3.84851
H         10.30251        7.15535       -2.56358
H         10.78927        8.97931       -0.88706
H         10.70913       10.17979       -2.17412
H         12.60384        9.01520       -3.35735
H         12.71855        7.85696       -2.02878
H         13.18375        9.75017       -0.41845
H         13.14494       10.89581       -1.75030
H         15.11387        8.53914       -1.47650
H         15.48267       10.21105       -1.03773
H         15.28553       10.97498       -3.35616
H         14.67058        9.39429       -3.89231
H         19.53474       11.01395       -3.00196
H         20.41390        8.71924       -3.60548
H         15.12750        7.33584       -3.44950
H         16.33940        6.24164       -4.05868
H         14.99134        8.48041       -5.71150
H         14.58084        6.77260       -5.73461
H         16.85594        6.22947       -6.66128
H         17.30291        7.93955       -6.59972
H         15.40703        8.47606       -8.17689
H         15.01295        6.76128       -8.27104
H         17.31131        6.28690       -9.20095
H         17.70492        8.00271       -9.09717
H         15.82696        8.52727      -10.69749
H         15.44336        6.81059      -10.80668
H         17.74481        6.35265      -11.72799
H         18.13218        8.06836      -11.61705
H         16.26935        8.59405      -13.22704
H         15.87553        6.88156      -13.33416
H         18.57432        8.12548      -14.18274
H         17.29171        7.59040      -15.28354
H         18.16693        6.40292      -14.30005
H         19.98154        6.51176       -4.37626
H         18.38816        6.03720       -4.95399
H         19.13138        4.09273       -0.92402
H         20.43464        3.17361       -1.75244
H         17.41196        2.91874       -2.28716
H         18.37774        1.79579       -1.34108
H         18.79817        2.34652       -4.35922
H         18.03901        0.90437       -3.66404
H         19.76093        1.21974       -3.38532
