78

C          1.54732       -0.85747        1.41961
C          0.69498       -0.22992        0.34889
C          0.77470       -0.67840       -0.98186
C         -0.02742       -0.12515       -1.97801
C         -0.91972        0.90456       -1.66972
C         -0.99206        1.38745       -0.35829
C         -0.19714        0.80829        0.64202
C         -1.85217        2.58346       -0.03806
N         -1.09881        3.87321       -0.05389
C         -1.12166        4.77448        0.90204
C         -1.72679        4.56201        2.25992
O         -1.56944        5.76245        2.96744
C         -2.04436        5.81879        4.28346
C         -2.50414        4.67953        4.95073
C         -2.95646        4.75694        6.27640
C         -3.44234        3.52810        7.00079
C         -2.93684        6.00769        6.90232
C         -2.48067        7.13417        6.21879
C         -2.02150        7.08630        4.89594
C         -1.54517        8.36627        4.22312
C         -0.03793        8.35200        3.90379
C         -2.40283        8.76804        3.00763
S         -0.37456        6.27249        0.53081
C         -0.21633        5.76507       -1.23200
C         -0.23267        4.23341       -1.22339
C          1.17065        3.59920       -1.10205
C          1.77107        3.26647       -2.47233
C          2.99481        2.35415       -2.36066
N          3.37516        1.85136       -3.67251
C          4.45249        0.85318       -3.65863
C          3.99946       -0.50030       -3.15585
C          4.44042       -1.00162       -1.92601
C          4.08751       -2.27690       -1.47384
C          3.26584       -3.07933       -2.26840
C          2.80209       -2.60220       -3.49601
C          3.16700       -1.32531       -3.94152
O          2.75678       -0.84118       -5.15469
H          1.12935       -1.82679        1.73159
H          1.61428       -0.22276        2.31249
H          2.56336       -1.05008        1.04988
H          1.47769       -1.47115       -1.23778
H          0.05924       -0.48732       -3.00266
H         -1.54551        1.33990       -2.45178
H         -0.25932        1.18480        1.66752
H         -2.31779        2.48732        0.94948
H         -2.65772        2.69174       -0.78095
H         -1.20107        3.71413        2.74502
H         -2.79418        4.27932        2.16075
H         -2.51773        3.70592        4.45963
H         -3.40638        2.63686        6.36127
H         -4.47865        3.65458        7.34531
H         -2.82951        3.32761        7.89164
H         -3.28313        6.10417        7.93250
H         -2.47935        8.10126        6.72593
H         -1.69406        9.15379        4.97962
H          0.21874        7.59548        3.15050
H          0.55090        8.13781        4.80586
H          0.27812        9.33203        3.51919
H         -2.29352        8.06397        2.17240
H         -2.10669        9.76393        2.64902
H         -3.46712        8.81025        3.27628
H          0.72510        6.15969       -1.63079
H         -1.05836        6.21264       -1.77605
H         -0.73381        3.85413       -2.12558
H          1.09417        2.67216       -0.52303
H          1.82667        4.27072       -0.52522
H          2.02959        4.18745       -3.02343
H          1.02198        2.73419       -3.07927
H          2.72694        1.48555       -1.73744
H          3.82059        2.87949       -1.82807
H          3.64018        2.62043       -4.28861
H          5.32330        1.17160       -3.04807
H          4.80403        0.74997       -4.69572
H          5.10156       -0.37637       -1.32124
H          4.46431       -2.64714       -0.52045
H          2.98732       -4.08184       -1.94180
H          2.16737       -3.23081       -4.12658
H          2.30438       -1.55143       -5.63878
