53

C          1.03615        1.06495       -5.94585
C          1.92186        1.99189       -5.10945
C          3.23004        1.31856       -4.66600
C          4.07980        2.25738       -3.82616
O          5.29125        1.57643       -3.32628
C          6.37118        1.63788       -4.09488
O          6.49073        2.21986       -5.16235
N          7.40878        0.91596       -3.46630
C          8.67705        0.78986       -3.96032
N          9.53461       -0.04268       -3.34236
C         10.99198        0.03542       -3.58067
C         11.59541       -1.06278       -4.48025
C         10.98858       -1.07643       -5.89670
C         11.45718       -2.23906       -6.77818
C         13.12040       -0.88105       -4.48272
C          9.07488       -1.08313       -2.40190
C          8.95830       -0.65114       -0.94223
O          7.80992        0.20804       -0.77833
C          6.93690       -0.09937        0.30293
C          5.86878       -1.11972       -0.10567
F          5.13273       -0.66799       -1.15272
F          6.42583       -2.30245       -0.49634
F          5.03796       -1.36772        0.92460
N          9.03233        1.52043       -5.01944
H          0.11032        1.57166       -6.24742
H          0.75356        0.16487       -5.38120
H          1.54945        0.73765       -6.86144
H          1.36498        2.33039       -4.22015
H          2.15618        2.90006       -5.68846
H          3.80158        1.00129       -5.55303
H          3.00670        0.41271       -4.08011
H          3.56755        2.56288       -2.90580
H          4.39570        3.14676       -4.38657
H          7.25160        0.61771       -2.49001
H         11.46897       -0.00941       -2.58925
H         11.22066        1.03489       -3.97806
H         11.37329       -2.04206       -4.01788
H         11.23649       -0.12364       -6.40444
H          9.88929       -1.12548       -5.81927
H         12.53056       -2.18367       -6.99991
H         10.92447       -2.23799       -7.73747
H         11.26326       -3.20639       -6.29224
H         13.40819        0.06166       -4.97292
H         13.61679       -1.69827       -5.01857
H         13.52703       -0.86667       -3.46189
H          9.80419       -1.90143       -2.46725
H          8.11380       -1.48799       -2.74837
H          9.85365       -0.09834       -0.61443
H          8.85913       -1.55414       -0.32401
H          6.42556        0.82985        0.58625
H          7.48327       -0.48583        1.17643
H          8.26989        2.06950       -5.44232
H          9.82920        1.24377       -5.58020
