52

O          0.65516        1.08797       -0.41427
C          2.01095        0.95655       -0.01968
C          2.80677        1.62899       -1.14224
S          4.57427        1.64535       -0.73314
C          5.14116       -0.07095       -1.17763
C          6.51798       -0.30429       -0.62956
C          7.65481       -0.07752       -1.41699
C          8.92376       -0.29425       -0.87304
C          9.05871       -0.73402        0.44349
C          7.93224       -0.97412        1.25150
C          6.66878       -0.74864        0.69447
C          8.08728       -1.45728        2.66822
C          5.32627        2.61342       -2.09885
C          4.83383        4.05333       -2.26697
C          4.80855        4.97101       -1.03161
S          6.24421        4.82184        0.06030
C          5.51197        4.14540        1.57214
S          3.86922        3.90304        1.77071
N          6.43692        3.88652        2.51999
C          7.89209        3.99102        2.34259
C          8.49309        2.58185        2.35638
O          8.16568        1.88984        3.55793
C          6.75418        1.81369        3.75642
C          6.10494        3.19930        3.77603
H          0.08283        0.76092        0.29754
H          2.29992       -0.10674        0.08355
H          2.22489        1.47001        0.93439
H          2.51201        2.68509       -1.20870
H          2.65078        1.14091       -2.11475
H          5.07168       -0.17046       -2.26910
H          4.39352       -0.72241       -0.70596
H          7.55334        0.23849       -2.45712
H          9.81034       -0.13364       -1.48702
H         10.05541       -0.90916        0.85299
H          5.77917       -0.94059        1.30073
H          8.61674       -0.71009        3.27658
H          8.67034       -2.38846        2.70568
H          7.11437       -1.64893        3.13817
H          5.17057        2.04211       -3.02449
H          6.39192        2.58864       -1.82998
H          3.82774        4.05944       -2.71409
H          5.49909        4.47825       -3.03534
H          3.94162        4.76732       -0.37563
H          4.75054        6.01796       -1.35387
H          8.29444        4.58696        3.17632
H          8.13837        4.50654        1.40806
H          9.58923        2.63209        2.31721
H          8.12963        2.01992        1.47422
H          6.60465        1.30681        4.71851
H          6.28986        1.20644        2.95509
H          6.49887        3.79774        4.61153
H          5.01506        3.12930        3.86094
