49

F          2.71958        0.87403       -2.19328
C          2.85089       -0.54208       -2.18571
C          3.33341       -1.00298       -0.82370
N          4.74352       -0.68115       -0.52213
C          5.16217        0.48983        0.04970
N          4.37681        1.57023       -0.01625
C          4.81813        2.88174        0.49369
C          6.35067        2.98980        0.42833
C          6.91191        1.78515        1.19780
N          6.34401        0.54161        0.66710
C          6.82451        3.09228       -1.03497
C          8.33252        3.01275       -1.24736
O          8.53921        2.95301       -2.65507
C          9.84985        2.60803       -3.04532
C          9.80151        1.78607       -4.33516
C          9.30786        0.29375       -4.24166
C          7.82353       -0.06124       -3.86444
C          6.69225        0.50183       -4.78056
F          5.55981       -0.23000       -4.52697
F          6.43305        1.79159       -4.45814
F          7.74978       -1.43355       -3.93500
F          7.57181        0.26449       -2.56027
F          9.51494       -0.27608       -5.46155
F         10.09358       -0.34276       -3.32321
F          9.04687        2.40998       -5.28905
F         11.08342        1.69855       -4.80514
N          5.71504       -1.69966       -0.55673
O          5.22730       -2.67641        0.37874
O          5.59741       -2.33459       -1.83602
H          3.55035       -0.80597       -2.98734
H          1.85347       -0.95522       -2.39104
H          3.25273       -2.09663       -0.76692
H          2.69796       -0.59239       -0.02487
H          3.62152        1.54130       -0.70475
H          4.45742        3.01478        1.52451
H          4.33773        3.64572       -0.12988
H          6.64611        3.89336        0.98204
H          6.66837        1.87130        2.26810
H          8.00292        1.71440        1.11690
H          6.87569       -0.32386        0.67752
H          6.45857        4.04159       -1.45362
H          6.36941        2.29830       -1.64448
H          8.75813        2.10286       -0.78299
H          8.85147        3.88616       -0.80823
H         10.37295        2.01053       -2.27896
H         10.46258        3.49977       -3.26680
H          6.94301        0.41862       -5.84881
H          5.94421       -3.33848        0.40126
H          6.44275       -2.11277       -2.27380
