62

C          2.93700       -4.30468        3.18686
C          3.69585       -3.28105        2.33818
C          4.33439       -2.16199        3.16828
C          5.09144       -1.13175        2.32191
C          5.73605       -0.02212        3.16398
C          6.43691        1.01486        2.30623
O          7.05653        1.99369        3.18082
C          7.67048        3.04847        2.49514
C          8.37003        3.90788        3.50377
N          8.34942        3.59239        4.77043
C          9.18357        4.40174        5.67772
C          9.44164        5.73366        4.94120
S          9.24527        5.32813        3.12190
C         10.79179        6.37775        5.23678
C         11.03250        7.68405        4.47278
C         12.36142        8.36526        4.84935
C         12.59631        9.62998        4.05515
C         12.06090       10.85378        4.48344
C         12.23930       12.01444        3.72767
C         12.95846       11.96762        2.53008
C         13.50053       10.75514        2.09603
C         13.31921        9.59595        2.85410
C          8.53591        4.58096        7.05378
C          8.35773        3.24456        7.79481
C          7.86919        3.45584        9.23991
F          8.65856        4.33355        9.89870
F          6.59755        3.95540        9.23533
F          7.85110        2.30065        9.92667
O          7.48124        2.35283        7.10325
H          2.48973       -5.08907        2.56179
H          2.12273       -3.82979        3.75436
H          3.60237       -4.79713        3.91168
H          3.01082       -2.83647        1.59636
H          4.48048       -3.79307        1.75566
H          5.02353       -2.60417        3.90911
H          3.55063       -1.64837        3.75265
H          4.39806       -0.68442        1.58872
H          5.87000       -1.64511        1.73169
H          6.46646       -0.45939        3.86394
H          4.96810        0.47954        3.77473
H          5.72171        1.53159        1.64075
H          7.22146        0.55438        1.67830
H          6.94656        3.67377        1.93280
H          8.42604        2.70055        1.75820
H          7.85175        2.75842        5.11413
H         10.14205        3.86018        5.79331
H          8.62551        6.44540        5.14674
H         11.59714        5.65482        5.02657
H         10.82782        6.57838        6.32207
H         10.20108        8.38465        4.65631
H         11.03521        7.48830        3.38589
H         13.19192        7.66122        4.68092
H         12.35597        8.59520        5.92723
H         11.50731       10.90177        5.42462
H         11.82288       12.95941        4.07859
H         13.10365       12.87382        1.94144
H         14.07375       10.71318        1.16895
H         13.75654        8.65376        2.51444
H          7.56282        5.08622        6.94943
H          9.18399        5.23714        7.65220
H          9.32395        2.72062        7.86960
H          6.56127        2.57022        7.33872
