63

C          3.00522        1.08899       -3.64520
C          3.62168        0.87219       -2.62424
C          4.32994        0.62830       -1.42661
C          5.01064       -0.58789       -1.23713
N          5.66822       -0.81957       -0.08904
C          6.40332       -2.08262        0.12755
C          7.91860       -1.87463        0.00552
O          8.47597       -3.16219        0.12913
C          9.90625       -3.16452        0.10510
C         10.35039       -4.62099        0.15681
O         11.77477       -4.58969        0.13464
C         12.46003       -5.77494        0.09568
C         11.86311       -7.04470        0.10205
C         12.67137       -8.17716        0.04308
C         14.07662       -8.09866       -0.01499
C         14.64264       -6.80952       -0.01947
C         13.85810       -5.66434        0.03798
C         14.92359       -9.37165       -0.06774
C         14.76047      -10.23851        1.23046
C         14.99423       -9.71017        2.67852
C         16.37318       -9.05621        2.88850
C         13.90228       -8.72013        3.13178
C         14.91145      -10.95796        3.58670
C         14.41409      -10.25276       -1.24075
C         16.40717       -9.07784       -0.36810
N          5.75359        0.03421        0.93774
C          5.11623        1.21670        0.78604
C          4.39158        1.55662       -0.37326
C          5.20782        2.11787        1.87884
C          5.26299        2.91554        2.78805
H          2.45915        1.28260       -4.54736
H          5.02683       -1.37712       -1.98588
H          6.05885       -2.81008       -0.61702
H          6.14463       -2.43893        1.13178
H          8.27058       -1.19209        0.80179
H          8.16534       -1.41694       -0.97458
H         10.31049       -2.60856        0.96990
H         10.28086       -2.68887       -0.81945
H          9.95291       -5.16947       -0.71422
H          9.97855       -5.10347        1.07720
H         10.78132       -7.16149        0.15293
H         12.18414       -9.15229        0.05952
H         15.72394       -6.69038       -0.06545
H         14.30806       -4.67146        0.03345
H         15.43040      -11.10327        1.08516
H         13.74014      -10.65786        1.21671
H         16.44718       -8.08179        2.38668
H         17.19075       -9.69546        2.52556
H         16.54317       -8.87903        3.96075
H         13.95670       -7.76381        2.59693
H         14.01407       -8.50480        4.20495
H         12.89505       -9.13554        2.97901
H         15.70139      -11.68324        3.34213
H         13.94261      -11.46821        3.47963
H         15.02752      -10.67744        4.64341
H         13.37265      -10.57175       -1.10331
H         15.02936      -11.15986       -1.32344
H         14.48092       -9.70657       -2.19191
H         16.89016       -8.43178        0.37192
H         16.52036       -8.60745       -1.35575
H         16.96834      -10.02186       -0.38718
H          3.88854        2.51918       -0.44190
H          5.31709        3.61474        3.59922
