99

C          0.93992        2.27773       -0.75772
C          2.43660        1.95884       -0.71980
C          2.85669        0.87495       -1.71954
C          4.35661        0.56430       -1.69093
C          4.79216       -0.50230       -2.70105
C          6.29763       -0.78642       -2.67227
C          6.76172       -1.80711       -3.71616
C          8.27336       -2.05708       -3.68899
C          8.76868       -3.00562       -4.78535
C         10.28744       -3.20757       -4.77415
C         10.80766       -4.07391       -5.92566
C         12.33393       -4.20523       -5.94717
C         12.87370       -4.95511       -7.16946
C         14.40405       -4.99684       -7.23010
C         14.95324       -5.59836       -8.52797
C         16.47987       -5.51621       -8.63547
C         17.01958       -5.94109      -10.00538
C         18.53130       -5.72898      -10.14471
C         19.03874       -5.97251      -11.57495
C         20.51959       -5.60663      -11.68462
S         21.18497       -5.83954      -13.37330
C         20.33335       -4.49884      -14.27831
C         20.91713       -4.32570      -15.68714
O         21.10236       -5.54765      -16.37030
C         19.95875       -6.07878      -17.07110
C         19.37629       -7.31450      -16.41435
O         18.71946       -6.95380      -15.18661
C         22.90326       -5.22731      -13.22041
C         23.76175       -6.13939      -12.34175
C         25.23865       -5.71368      -12.37926
C         26.11478       -6.55428      -11.44267
C         27.58878       -6.13509      -11.45414
C         28.45737       -6.94549      -10.48437
C         29.92622       -6.51538      -10.48493
H          0.67452        3.05914       -0.03217
H          0.33604        1.38846       -0.52253
H          0.63180        2.62980       -1.75352
H          2.72036        1.64172        0.29813
H          3.01391        2.87766       -0.91991
H          2.56765        1.18842       -2.73854
H          2.28641       -0.04878       -1.51646
H          4.64251        0.24191       -0.67402
H          4.92263        1.49362       -1.88076
H          4.50131       -0.18123       -3.71712
H          4.23747       -1.43797       -2.51082
H          6.58352       -1.13702       -1.66482
H          6.84613        0.15993       -2.82652
H          6.47015       -1.45562       -4.72178
H          6.22722       -2.76124       -3.56403
H          8.56133       -2.45502       -2.70012
H          8.79911       -1.09064       -3.78747
H          8.46375       -2.60933       -5.77031
H          8.26485       -3.98306       -4.68544
H         10.59281       -3.65197       -3.81056
H         10.78087       -2.22020       -4.81851
H         10.47024       -3.63889       -6.88328
H         10.34920       -5.07678       -5.87289
H         12.67585       -4.70515       -5.02416
H         12.77993       -3.19491       -5.92413
H         12.49196       -4.46813       -8.08452
H         12.47146       -5.98302       -7.18547
H         14.79678       -5.55681       -6.36375
H         14.79250       -3.96817       -7.12428
H         14.50530       -5.06434       -9.38481
H         14.62755       -6.64866       -8.62297
H         16.94496       -6.12835       -7.84376
H         16.79467       -4.47626       -8.43763
H         16.50256       -5.35851      -10.78818
H         16.77126       -6.99879      -10.19817
H         19.07219       -6.38278       -9.44038
H         18.77411       -4.69308       -9.85050
H         18.44086       -5.36511      -12.27147
H         18.89042       -7.02481      -11.86331
H         21.13658       -6.26774      -11.05921
H         20.71546       -4.56435      -11.39074
H         20.40308       -3.57316      -13.68813
H         19.29380       -4.84908      -14.32513
H         21.90398       -3.84214      -15.64125
H         20.24678       -3.64226      -16.23905
H         20.31022       -6.35395      -18.07718
H         19.18422       -5.30058      -17.17789
H         20.18216       -8.04538      -16.22535
H         18.65956       -7.76466      -17.12230
H         18.18131       -7.70635      -14.89854
H         22.86910       -4.19119      -12.85214
H         23.26995       -5.22590      -14.25747
H         23.66768       -7.18293      -12.68297
H         23.40752       -6.10851      -11.29972
H         25.32077       -4.64948      -12.09963
H         25.61560       -5.79203      -13.41291
H         26.03232       -7.61912      -11.72123
H         25.72273       -6.47746      -10.41348
H         27.66542       -5.06277      -11.20185
H         27.99117       -6.23484      -12.47737
H         28.38518       -8.01627      -10.73974
H         28.04584       -6.84968       -9.46529
H         30.38075       -6.64223      -11.47874
H         30.51612       -7.10860       -9.77344
H         30.03405       -5.45730      -10.20407
