77

C          0.05857        8.97080       -4.19324
C          1.58525        9.07665       -4.17048
C          2.28934        7.71947       -4.05232
C          3.81645        7.83213       -4.01633
C          4.54174        6.48632       -3.89300
C          6.06372        6.65353       -3.81661
C          6.82426        5.34410       -3.67954
O          8.21564        5.67197       -3.51824
C          9.06797        4.56655       -3.32513
C         10.47904        5.06159       -2.93119
N         11.08315        5.82832       -4.10111
C         10.57317        7.24361       -4.05399
C         10.39386        7.53258       -2.55881
C         10.35459        6.16195       -1.81395
C         11.28423        6.12287       -0.57626
C         12.81235        6.08934       -0.75965
O         13.16903        6.65447       -2.01894
C         14.53729        6.46521       -2.37034
C         14.69260        6.93981       -3.80320
O         13.75057        6.26391       -4.65258
C         11.37164        3.86109       -2.56698
C         11.46347        2.66991       -3.53845
O         12.66937        2.73940       -4.36435
C         12.54622        3.16755       -5.63715
O         11.57409        3.76489       -6.07355
C         13.77032        2.80894       -6.45312
S         14.79017        4.25654       -6.91511
C         11.59606        1.36745       -2.74518
O         11.92344        0.24410       -3.57768
C         10.91555       -0.23091       -4.36830
O          9.77928        0.19544       -4.34384
C         11.43029       -1.30598       -5.29491
S         12.05131       -0.54122       -6.84176
H         -0.41090        9.96033       -4.27770
H         -0.32382        8.50000       -3.27542
H         -0.28858        8.36575       -5.04388
H          1.89719        9.71967       -3.32985
H          1.93351        9.58676       -5.08465
H          1.98672        7.07643       -4.89741
H          1.93794        7.20502       -3.14056
H          4.11140        8.47883       -3.17108
H          4.16545        8.34982       -4.92704
H          4.27674        5.84509       -4.75104
H          4.18206        5.95784       -2.99334
H          6.32026        7.29075       -2.95400
H          6.42639        7.18063       -4.71452
H          6.69050        4.70149       -4.56995
H          6.48088        4.77214       -2.79613
H          9.10988        3.94402       -4.24041
H          8.70174        3.91783       -2.50349
H         10.89725        5.34112       -4.99424
H         12.13241        5.87488       -4.02964
H          9.62646        7.28022       -4.59894
H         11.31641        7.88255       -4.54338
H          9.46220        8.08574       -2.39605
H         11.22446        8.14001       -2.18582
H          9.34358        6.03956       -1.40375
H         11.00995        5.26957        0.06314
H         11.01331        7.01455        0.00802
H         13.19374        5.05204       -0.70650
H         13.30133        6.64467        0.06076
H         14.80325        5.39302       -2.28389
H         15.20556        7.04023       -1.70232
H         15.72387        6.76958       -4.14649
H         14.48491        8.01957       -3.86313
H         14.21612        5.67713       -5.29618
H         11.00241        3.48103       -1.60200
H         12.39666        4.20777       -2.38841
H         10.60759        2.60255       -4.21944
H         13.44324        2.29392       -7.36366
H         14.43104        2.14323       -5.88856
H         13.88654        4.82414       -7.75051
H         10.65206        1.18345       -2.21143
H         12.42498        1.43096       -2.02786
H         10.63425       -2.02154       -5.52320
H         12.29280       -1.82553       -4.86197
H         10.84059       -0.14399       -7.30135
