82

O          3.38341       -0.79894       -1.86184
C          2.15666       -0.72821       -1.12329
C          2.36603       -0.16702        0.27343
N          2.71166        1.25453        0.25229
C          3.00289        1.85114        1.56009
C          4.46896        1.67199        2.00450
C          5.50564        2.36255        1.09520
C          5.63279        1.82098       -0.32543
C          5.99782        0.34558       -0.36233
N          6.18588       -0.10497       -1.78975
C          7.02318        0.78577       -2.73450
C          6.69981        2.25976       -2.36427
O          6.67884        2.55765       -0.98279
C          6.52548        0.60145       -4.20238
C          5.03386        0.30060       -4.43640
C          4.75863       -1.20150       -4.60041
N          3.32444       -1.50001       -4.50804
C          2.99633       -2.90776       -4.85982
C          1.54884       -3.06046       -5.24811
C          1.16619       -2.98242       -6.59494
C         -0.16341       -3.12539       -6.99262
C         -1.14341       -3.36019       -6.02505
C         -0.79136       -3.44303       -4.67820
C          0.54479       -3.29153       -4.28956
O          0.92762       -3.36995       -2.97136
C          8.57013        0.39464       -2.61805
C          9.15825        0.67737       -1.20076
C         10.69776        0.55387       -1.01992
C         11.39451        1.92276       -1.05442
C         11.01698       -0.17400        0.29518
C          8.78423       -1.10720       -2.95310
O          8.05032       -2.02259       -2.10182
C          9.36468        1.17175       -3.69153
O          4.62775        2.11523        3.35260
H          3.16087       -1.10151       -2.79864
H          1.71890       -1.73603       -1.03820
H          1.42618       -0.09975       -1.66814
H          3.17635       -0.72941        0.76620
H          1.44983       -0.37621        0.86556
H          1.95688        1.77179       -0.19744
H          2.36256        1.45170        2.37127
H          2.79601        2.93237        1.49038
H          4.69377        0.59348        2.06431
H          6.48656        2.28948        1.59111
H          5.26810        3.43675        1.01896
H          4.68205        1.96192       -0.86881
H          5.19223       -0.28521        0.02710
H          6.91723        0.15501        0.20022
H          5.20754       -0.22714       -2.13027
H          6.65273       -1.04175       -1.78559
H          5.71893        2.51763       -2.80971
H          7.45148        2.91541       -2.82139
H          7.10945       -0.17788       -4.70888
H          6.78527        1.53622       -4.71859
H          4.71193        0.81822       -5.35231
H          4.39769        0.71429       -3.63651
H          5.27087       -1.78953       -3.81825
H          5.19332       -1.54520       -5.56070
H          2.80730       -0.88807       -5.14524
H          3.23811       -3.54002       -3.99276
H          3.62463       -3.24631       -5.70443
H          1.94161       -2.82451       -7.34862
H         -0.43038       -3.06920       -8.04724
H         -2.18650       -3.48591       -6.31619
H         -1.55558       -3.63095       -3.91970
H          0.15957       -3.64452       -2.44423
H          8.69259       -0.02780       -0.49639
H          8.83947        1.67260       -0.86402
H         11.11963       -0.05885       -1.83560
H         11.03617        2.55895       -0.23095
H         11.21453        2.46378       -1.99230
H         12.48188        1.81352       -0.93998
H         10.61286        0.37469        1.15986
H         12.10056       -0.27262        0.44507
H         10.58742       -1.18779        0.31482
H          9.85783       -1.33444       -2.89993
H          8.46315       -1.33909       -3.97720
H          8.61932       -2.30636       -1.37033
H          9.32004        2.25607       -3.53276
H          9.01920        0.96105       -4.71037
H         10.42272        0.88708       -3.65098
H          4.41637        3.06297        3.39690
