80

C          9.74196        0.22027        0.66588
C          9.34771       -1.08001        1.37187
C          7.85401       -1.19752        1.71823
C          6.90020       -1.15976        0.53171
O          7.26891       -2.20995       -0.39136
C          6.24412       -2.57263       -1.28435
C          6.72546       -3.64258       -2.26625
C          5.64266       -3.83425       -3.34626
O          5.87897       -4.92475       -4.21231
C          5.93681       -6.13648       -3.47381
C          7.16286       -6.16479       -2.56450
N          7.00260       -4.98306       -1.57484
C          8.15211       -4.90148       -0.56473
O          8.31483       -6.17490       -0.04434
C          8.50348       -6.30680        1.34454
C          9.02153       -5.25502        2.10302
C          9.21376       -5.39688        3.48405
C          9.77930       -4.26466        4.30149
C          8.89161       -6.62988        4.06485
C          8.40641       -7.67741        3.28366
C          8.19318       -7.55753        1.90230
C          7.64701       -8.74361        1.11860
C          6.20341       -8.51358        0.63079
C          8.58003       -9.22388       -0.00969
C          8.50343       -6.14377       -3.29651
C          8.67167       -7.39086       -4.17424
O         10.03682       -7.48159       -4.50617
C         10.32571       -8.59318       -5.36856
C         11.82109       -8.63328       -5.63403
C         12.22530       -9.79159       -6.55408
C         13.73655       -9.86373       -6.80357
C         14.14233      -11.01734       -7.72391
H         10.82869        0.27187        0.51947
H          9.44583        1.10110        1.25414
H          9.27731        0.31033       -0.32658
H          9.91743       -1.17163        2.30938
H          9.64974       -1.93956        0.75095
H          7.56336       -0.37446        2.39150
H          7.67643       -2.12991        2.27905
H          6.93316       -0.19251       -0.00007
H          5.86298       -1.32283        0.87480
H          5.91047       -1.70741       -1.89152
H          5.34793       -2.93662       -0.73592
H          7.67899       -3.34194       -2.72130
H          5.61433       -2.93187       -3.97030
H          4.65159       -3.94529       -2.85893
H          5.99129       -6.95681       -4.19936
H          5.00830       -6.27404       -2.88196
H          7.11507       -7.05343       -1.92045
H          6.16587       -5.21490       -1.01668
H          7.86159       -4.15088        0.17665
H          9.03199       -4.55184       -1.12556
H          9.31175       -4.31551        1.63015
H          9.80109       -3.32621        3.73297
H         10.80913       -4.48523        4.61994
H          9.18916       -4.09907        5.21329
H          9.03200       -6.77684        5.13678
H          8.17364       -8.63325        3.75767
H          7.59441       -9.56724        1.84892
H          6.14541       -7.70195       -0.11047
H          5.54118       -8.24891        1.46571
H          5.80613       -9.42179        0.15624
H          8.66677       -8.49017       -0.82243
H          8.20271      -10.16263       -0.43890
H          9.59239       -9.41171        0.37161
H          9.32991       -6.16377       -2.57291
H          8.61639       -5.24591       -3.91980
H          8.05098       -7.31947       -5.08998
H          8.34038       -8.29763       -3.62172
H          9.75828       -8.48348       -6.31373
H          9.98760       -9.53090       -4.88443
H         12.34864       -8.71706       -4.67008
H         12.12831       -7.67321       -6.07914
H         11.70162       -9.69649       -7.52139
H         11.88504      -10.74728       -6.11796
H         14.25788       -9.96135       -5.83644
H         14.07813       -8.90817       -7.23573
H         13.84493      -11.98961       -7.30383
H         15.22929      -11.04230       -7.87927
H         13.66877      -10.92602       -8.71275
