76

C          0.98010       -0.60799       -0.98709
C          2.50203       -0.48821       -0.87514
C          3.06693        0.76394       -1.55545
C          4.59268        0.87283       -1.47279
C          5.16043        2.12927       -2.14127
C          6.69038        2.20232       -2.10611
C          7.26549        3.45583       -2.77416
C          8.79663        3.46812       -2.82548
C          9.38725        4.71370       -3.49567
C         10.90801        4.63817       -3.66235
C         11.52789        5.86516       -4.34139
C         13.02293        5.67795       -4.62438
C         13.68259        6.88307       -5.30829
C         15.12691        6.55125       -5.68858
N         15.84246        7.66518       -6.35043
C         16.67510        8.56248       -5.73031
N         17.16787        9.43016       -6.57997
N         16.62334        9.07294       -7.77803
C         15.80873        8.00852       -7.66495
C         15.06935        7.32398       -8.76222
C         15.95867        6.39690       -9.63042
C         16.57995        5.21588       -8.87669
C         17.42920        4.32393       -9.78560
C         16.93553        9.85895       -8.98374
C         16.10320       11.14164       -9.10105
C         16.54193       12.25918       -8.14762
S         15.36543       13.62503       -8.25559
O         15.44904       14.22106       -9.57171
O         14.11662       13.15711       -7.70785
O         15.99888       14.65891       -7.18293
H          0.60758       -1.50779       -0.47835
H          0.66030       -0.66478       -2.03832
H          0.47632        0.26014       -0.53655
H          2.97528       -1.38338       -1.31306
H          2.79418       -0.48396        0.18862
H          2.60934        1.66139       -1.10316
H          2.75853        0.77193       -2.61600
H          5.04559       -0.02137       -1.93640
H          4.90369        0.85148       -0.41347
H          4.73762        3.02602       -1.65525
H          4.82056        2.16799       -3.19130
H          7.10567        1.30578       -2.59972
H          7.03629        2.15513       -1.05859
H          6.90495        4.35425       -2.24340
H          6.86943        3.53394       -3.80212
H          9.14374        2.56922       -3.36527
H          9.20050        3.37790       -1.80189
H          9.12023        5.61088       -2.91073
H          8.92116        4.84926       -4.48760
H         11.15686        3.73756       -4.25141
H         11.38042        4.49123       -2.67537
H         11.37496        6.75840       -3.71220
H         11.00097        6.06543       -5.29057
H         13.15492        4.78406       -5.25931
H         13.55250        5.45960       -3.68119
H         13.66596        7.76177       -4.64412
H         13.11438        7.16121       -6.21126
H         15.17357        5.68593       -6.36154
H         15.72072        6.29667       -4.80016
H         16.89990        8.54215       -4.66866
H         14.59818        8.09303       -9.39206
H         14.24569        6.74707       -8.32001
H         16.75656        6.98799      -10.10833
H         15.32532        6.02575      -10.45021
H         15.77634        4.61414       -8.41909
H         17.20628        5.58636       -8.04615
H         16.82987        3.90655      -10.60675
H         17.85727        3.48309       -9.22561
H         18.26234        4.88560      -10.23179
H         16.75243        9.20767       -9.84585
H         18.01268       10.06692       -8.94044
H         15.04032       10.90349       -8.94075
H         16.19328       11.49295      -10.13939
H         17.53244       12.65620       -8.40862
H         16.54741       11.94823       -7.09491
H         16.37068       15.41206       -7.68279
