65

C          0.26772        0.65322        1.16601
C          1.76379        0.49016        0.88696
C          2.42766        1.76949        0.36521
C          3.91943        1.60625        0.05778
C          4.58863        2.88684       -0.45214
C          6.07724        2.71266       -0.77059
C          6.76160        3.99655       -1.25076
C          8.24743        3.80957       -1.57735
C          8.96044        5.10234       -1.98659
C         10.43980        4.89452       -2.33134
C         11.16896        6.19329       -2.70959
C         12.70286        6.12858       -2.78806
C         13.31244        5.27828       -3.90718
N         13.13222        3.83752       -3.64030
C         12.87044        2.87400       -4.52359
N         13.21910        2.98322       -5.82662
C         14.36215        3.63986       -6.36970
C         15.57762        3.69207       -5.68126
C         16.64935        4.33706       -6.30402
N         16.58510        4.89120       -7.52199
C         15.41616        4.80988       -8.17287
C         14.27408        4.20295       -7.64525
N         12.15499        1.78710       -4.13242
C         12.44952        0.41992       -4.53068
O         13.46262       -0.06040       -3.68116
C         13.69599       -1.46942       -3.83366
H         -0.17655       -0.27823        1.54234
H         -0.27974        0.93736        0.25489
H          0.08371        1.43549        1.91747
H          1.91547       -0.32119        0.15464
H          2.27808        0.16476        1.80719
H          2.29322        2.57688        1.10642
H          1.90200        2.10752       -0.54522
H          4.05037        0.80392       -0.68998
H          4.44313        1.25905        0.96589
H          4.46821        3.68550        0.30054
H          4.06086        3.24200       -1.35443
H          6.19444        1.92629       -1.53774
H          6.59933        2.33766        0.12743
H          6.65599        4.77643       -0.47674
H          6.23750        4.38352       -2.14183
H          8.34764        3.06289       -2.38695
H          8.75895        3.37655       -0.69898
H          8.88161        5.83850       -1.16892
H          8.44463        5.55363       -2.85130
H         10.49856        4.16698       -3.16049
H         10.94334        4.42920       -1.46229
H         10.91737        6.96000       -1.95995
H         10.77041        6.57418       -3.66509
H         13.12016        5.79684       -1.81994
H         13.09387        7.14655       -2.93507
H         14.38772        5.49373       -4.00337
H         12.84437        5.50002       -4.87693
H         13.06591        3.57342       -2.65996
H         12.63922        2.46577       -6.48275
H         15.70394        3.22776       -4.70302
H         17.61494        4.39769       -5.79524
H         15.38384        5.26022       -9.16797
H         13.34301        4.18017       -8.21374
H         11.68086        1.88023       -3.23618
H         12.76213        0.40254       -5.59143
H         11.52103       -0.17039       -4.43332
H         14.45335       -1.73557       -3.09006
H         14.07445       -1.70603       -4.84168
H         12.77651       -2.04736       -3.64193
