87

Br         2.82482        0.24659       -2.24132
C          4.20458       -0.38975       -0.99917
C          4.16120        0.37922        0.31192
C          5.28214       -0.09482        1.26593
N          5.39297        0.54740        2.57478
C          4.42622        0.18778        3.58737
C          3.20284        1.12356        3.69689
C          2.27206        0.84479        4.87456
C          1.40250       -0.40732        4.66261
C          0.38514       -0.68254        5.79889
C         -0.96995        0.02933        5.61099
C         -0.95942        1.56362        5.55665
C         -2.35424        2.14803        5.56334
C         -2.67678        3.45189        5.50406
C         -1.65286        4.55432        5.42006
C         -4.11180        3.90501        5.51954
C          0.15867       -2.19508        5.93907
N          3.75736        2.54438        3.83706
C          4.73464        2.94063        2.74954
C          5.88473        1.91291        2.71774
C          6.94437        2.33450        1.69352
C          8.27209        1.57461        1.80496
C          9.27859        2.00848        0.73498
C         10.60943        1.25257        0.79648
C         11.60003        1.68861       -0.28801
C         12.92895        0.92790       -0.25203
C         13.90053        1.34365       -1.36141
C         15.23122        0.58544       -1.32853
C         16.19064        0.97833       -2.45638
C         17.52770        0.23005       -2.41650
C         18.46841        0.60704       -3.56375
H          5.15675       -0.26020       -1.52620
H          4.00966       -1.45963       -0.86405
H          3.17154        0.24015        0.77428
H          4.27011        1.45318        0.09580
H          6.24986        0.00594        0.75424
H          5.15997       -1.17241        1.45940
H          4.92164        0.17202        4.58051
H          4.06466       -0.83202        3.40219
H          2.64156        1.13938        2.75082
H          1.61891        1.71798        5.03467
H          2.86935        0.72633        5.79620
H          2.06413       -1.28236        4.56710
H          0.86398       -0.32374        3.70249
H          0.83040       -0.32083        6.74479
H         -1.62230       -0.27742        6.44464
H         -1.45190       -0.36104        4.69712
H         -0.42971        1.90418        4.64777
H         -0.38022        1.95138        6.41581
H         -3.17216        1.42290        5.62561
H         -0.62005        4.18359        5.44983
H         -1.77758        5.26672        6.25110
H         -1.78170        5.13745        4.49348
H         -4.80628        3.05789        5.57729
H         -4.35346        4.48580        4.61447
H         -4.30836        4.56995        6.37596
H         -0.25015       -2.62117        5.00987
H         -0.55519       -2.41575        6.74378
H          1.09488       -2.72363        6.16762
H          4.23731        2.60649        4.74938
H          2.97091        3.20580        3.88064
H          5.09237        3.95098        2.99165
H          4.17099        2.96986        1.80851
H          6.36537        1.96439        3.72008
H          7.13941        3.40954        1.84065
H          6.53866        2.24780        0.67197
H          8.09928        0.48890        1.73163
H          8.69856        1.74125        2.80885
H          9.46781        3.09218        0.82826
H          8.82833        1.86755       -0.26384
H         10.41849        0.16896        0.70350
H         11.06677        1.39451        1.79124
H         11.79524        2.77090       -0.18989
H         11.13249        1.55627       -1.27980
H         12.73131       -0.15586       -0.32867
H         13.40964        1.07762        0.73076
H         14.09563        2.42814       -1.28964
H         13.41779        1.18963       -2.34279
H         15.03363       -0.49987       -1.38075
H         15.72323        0.75489       -0.35444
H         16.38048        2.06555       -2.41403
H         15.70158        0.79710       -3.43010
H         17.33597       -0.85621       -2.43892
H         18.02436        0.42792       -1.45143
H         18.01722        0.37958       -4.54114
H         19.41928        0.06030       -3.50243
H         18.70250        1.68209       -3.55182
