85

C          0.13683        0.02369        0.45851
C          1.66587       -0.04965        0.46297
C          2.34009        1.32377        0.37214
C          3.87068        1.26102        0.37691
C          4.54312        2.63486        0.29220
C          6.07378        2.57123        0.29323
C          6.74643        3.94444        0.20201
C          8.27689        3.87893        0.18537
C          8.94892        5.25085        0.07276
C         10.47858        5.18342        0.02317
C         11.14798        6.55405       -0.11717
C         12.67449        6.48430       -0.22090
C         13.34244        7.85374       -0.37945
C         14.86261        7.76864       -0.54914
C         15.56963        9.11606       -0.76079
C         15.43231       10.13482        0.38576
C         15.88524        9.64003        1.77034
C         17.36555        9.23157        1.75009
N         17.83309        8.78396        3.07522
N         18.41308        9.59626        3.93426
N         18.59792        8.93693        5.06422
C         18.11683        7.69677        4.90187
N         17.61529        7.57707        3.64514
C         17.07310        6.41948        2.90624
C         18.16996        5.41030        2.52205
O         19.35169        6.01000        1.97142
C         19.27384        6.43136        0.65765
O         18.21485        6.46669        0.06154
C         20.62773        6.79881        0.12044
C         21.45082        5.54705       -0.28174
C         20.79765        4.69597       -1.37167
C         18.09103        6.61959        5.96606
O         17.57868        5.54940        5.68949
C         18.70033        6.98123        7.28283
H         -0.31599       -0.97521        0.52504
H         -0.23755        0.49692       -0.46164
H         -0.23720        0.61494        1.30779
H          2.00768       -0.67726       -0.37764
H          2.00831       -0.56131        1.37861
H          1.99770        1.95296        1.21296
H          1.99840        1.83676       -0.54445
H          4.21254        0.63564       -0.46679
H          4.21168        0.74389        1.29135
H          4.20309        3.26014        1.13669
H          4.20095        3.15255       -0.62132
H          6.41242        1.94390       -0.55033
H          6.41733        2.05575        1.20763
H          6.41608        4.57061        1.04962
H          6.39535        4.46191       -0.70816
H          8.60392        3.24456       -0.65741
H          8.63163        3.37059        1.09951
H          8.63685        5.88296        0.92291
H          8.57997        5.76281       -0.83329
H         10.78596        4.54203       -0.82155
H         10.85369        4.68230        0.93342
H         10.86548        7.19045        0.74026
H         10.74960        7.06271       -1.01222
H         12.95222        5.84457       -1.07662
H         13.08063        5.97915        0.67503
H         13.08399        8.48038        0.49248
H         12.91319        8.37143       -1.25461
H         15.09636        7.12280       -1.40981
H         15.29671        7.23621        0.31823
H         15.17123        9.58930       -1.67176
H         16.63489        8.92948       -0.97705
H         14.38313       10.44940        0.48732
H         15.99293       11.04776        0.12923
H         15.26734        8.78550        2.08846
H         15.74731       10.43463        2.51805
H         18.01689       10.08415        1.51988
H         17.57152        8.42669        1.03294
H         16.56220        6.80828        2.02041
H         16.34897        5.92984        3.56871
H         17.71680        4.71250        1.80278
H         18.51108        4.86263        3.40630
H         21.17807        7.36256        0.88734
H         20.46793        7.44417       -0.75343
H         21.64248        4.94187        0.61715
H         22.43079        5.90964       -0.62452
H         19.84137        4.26272       -1.04407
H         21.45507        3.86350       -1.65306
H         20.59796        5.28511       -2.27817
H         19.76041        7.24835        7.15101
H         18.60392        6.13472        7.96880
H         18.21277        7.87406        7.70282
