49

C          1.47223       -2.59159       -0.77803
C          2.80536       -3.28970       -0.95231
O          3.91569       -2.33690       -0.80964
P          4.66637       -1.73024       -2.08810
O          4.13629       -2.13509       -3.40947
O          4.67987       -0.12842       -1.80222
C          3.39379        0.57572       -1.81840
C          3.64776        2.06642       -1.87615
C          6.42941       -2.09671       -1.83339
C          7.05985       -1.46807       -0.57965
C          8.58154       -1.23906       -0.66843
N          9.08715       -0.74042       -1.95912
C          8.75846        0.37861       -2.61860
N          7.69234        1.12356       -2.27125
C          7.30677        2.35755       -2.97232
C          6.98460        2.16513       -4.44585
C          6.10505        1.15386       -4.86967
C          5.81703        0.99798       -6.22555
C          6.40286        1.84622       -7.17263
C          7.27946        2.85176       -6.76027
C          7.57204        3.00983       -5.40121
N          9.52351        0.81878       -3.65069
I         11.19658       -0.13089       -4.34997
H          0.66461       -3.33676       -0.79426
H          1.28675       -1.87966       -1.59336
H          1.42405       -2.05978        0.18162
H          2.88355       -3.77278       -1.93561
H          2.97940       -4.03640       -0.16705
H          2.84818        0.29594       -0.90547
H          2.82108        0.23386       -2.69324
H          4.26120        2.39929       -1.02645
H          2.69013        2.60203       -1.82253
H          4.13527        2.35393       -2.81758
H          6.92160       -1.75141       -2.75568
H          6.52069       -3.19238       -1.83483
H          6.88143       -2.10739        0.29615
H          6.55408       -0.52327       -0.33130
H          9.11264       -2.18673       -0.51492
H          8.89888       -0.55489        0.13410
H          9.84367       -1.27179       -2.38738
H          6.96851        0.67583       -1.71264
H          8.11242        3.09768       -2.85382
H          6.43646        2.74330       -2.42664
H          5.63703        0.48755       -4.14372
H          5.12969        0.21198       -6.53995
H          6.17364        1.72263       -8.23137
H          7.73676        3.51655       -7.49345
H          8.24835        3.80638       -5.08008
H          9.03276        1.36176       -4.37030
