54

C          0.99558        0.08899        0.26632
O          2.42421       -0.01816        0.35171
C          2.88615       -1.34823        0.40305
C          4.39177       -1.31655        0.44414
N          4.94790       -0.10242        0.43209
C          6.29423        0.13752        0.43662
C          7.18891       -0.91005        0.46994
C          6.66159       -2.24669        0.52936
C          5.23541       -2.45176        0.49701
C          4.70629       -3.76305        0.53874
C          5.52948       -4.87587        0.63469
C          4.91466       -6.25239        0.68126
C          5.87327       -7.44211        0.71292
O          5.08380       -8.60961        0.73140
Si         5.69856      -10.18302        0.79851
C          6.78700      -10.49280       -0.70282
C          6.69658      -10.39759        2.37733
C          4.16952      -11.25747        0.78715
C          6.93267       -4.65804        0.70486
C          7.48274       -3.39142        0.65374
C          8.64081       -0.61301        0.44133
C          9.20537        0.23518        1.41005
C         10.56657        0.54091        1.37032
C         11.37458        0.01439        0.35914
C         10.81860       -0.82180       -0.61413
C          9.46100       -1.13946       -0.57405
H          0.76760        1.15895        0.23464
H          0.51473       -0.36418        1.14826
H          0.62126       -0.39470       -0.65046
H          2.55543       -1.92526       -0.48395
H          2.50233       -1.87566        1.29953
H          4.27717        0.67463        0.39322
H          6.59581        1.18094        0.38600
H          3.62541       -3.91006        0.50310
H          4.24830       -6.37719       -0.18782
H          4.25838       -6.32208        1.56481
H          6.52335       -7.38660        1.60912
H          6.53561       -7.42143       -0.17616
H          7.67032       -9.83764       -0.71409
H          6.23103      -10.33515       -1.63745
H          7.15313      -11.52975       -0.70113
H          7.58268       -9.74661        2.39842
H          7.05416      -11.43382        2.46504
H          6.08830      -10.17715        3.26580
H          3.58293      -11.09704       -0.12760
H          3.52639      -11.03438        1.64945
H          4.44010      -12.32165        0.83364
H          7.60159       -5.51212        0.80928
H          8.56217       -3.26372        0.72032
H          8.58092        0.63521        2.21087
H         10.99716        1.18930        2.13383
H         12.43699        0.25737        0.32831
H         11.44307       -1.22316       -1.41271
H          9.02873       -1.77335       -1.34988
