56

C          3.49951        2.96904        0.97552
C          3.12001        2.05547        2.14264
C          3.83408        0.67913        2.13206
C          5.32694        0.82249        2.19780
O          6.08330        0.72266        1.23569
O          5.75559        1.13030        3.44671
C          7.17769        1.31865        3.61180
C          7.60596        2.69588        3.05259
N          9.02862        2.76391        2.70346
C          9.44404        2.17868        1.55728
N         10.67251        2.21873        1.00873
N         10.74600        1.46643       -0.13872
C          9.54583        0.95525       -0.28022
N          8.70647        1.39001        0.74034
C          9.15210       -0.03989       -1.31613
C          9.23549       -1.49750       -0.79212
C          8.26080       -1.79409        0.34892
C          8.38167       -3.19477        0.95218
C          7.48551       -3.37832        2.18197
N          7.83114       -2.41517        3.25213
C         10.00150        3.24827        3.68816
C         10.48173        4.68283        3.43511
C         11.22269        5.23500        4.67101
F         12.22041        4.41959        5.07656
F         11.76301        6.44368        4.38162
F         10.35940        5.39305        5.70331
O         11.34220        4.65355        2.30427
H          2.91718        3.89883        1.00782
H          3.30707        2.48725        0.00646
H          4.56347        3.25059        0.99526
H          2.03957        1.85342        2.12026
H          3.32013        2.55476        3.10266
H          3.59888        0.13360        1.20932
H          3.49532        0.08793        2.99365
H          7.71239        0.48369        3.13371
H          7.34167        1.25753        4.69383
H          7.40375        3.49071        3.78107
H          7.01327        2.93346        2.15848
H         11.40837        2.88061        1.25780
H          7.71613        1.09321        0.91591
H          9.82896        0.09395       -2.16975
H          8.13002        0.17960       -1.66233
H         10.27101       -1.69408       -0.47091
H          9.04242       -2.16648       -1.64462
H          7.22567       -1.63321        0.00188
H          8.41743       -1.08516        1.17466
H          9.43144       -3.38729        1.23715
H          8.12366       -3.96500        0.20860
H          7.54335       -4.43027        2.51492
H          6.43640       -3.19267        1.90051
H          8.74821       -2.65579        3.63683
H          7.17625       -2.52458        4.02824
H         10.87484        2.57800        3.70763
H          9.52704        3.19326        4.67558
H          9.61597        5.34860        3.26766
H         11.65614        5.55251        2.10707
