65

F          7.19153        1.31228        3.49127
C          6.02847        0.72158        4.02966
C          4.93162        0.65765        2.97549
C          5.33206       -0.07461        1.67524
C          5.90455       -1.47617        1.91731
O          4.95969       -2.18436        2.68010
C          5.23031       -3.60789        2.78059
O          4.19353       -4.21863        3.43894
C          2.97034       -4.34278        2.67759
C          1.96302       -5.07072        3.54935
O          1.57408       -4.30845        4.68657
S          3.74517       -0.33761        0.68905
C          4.36885        0.51645       -0.62854
N          5.57758        1.00443       -0.53814
C          6.25966        0.75943        0.74946
C          6.22603        1.81637       -1.58856
C          6.15035        3.32256       -1.31291
C          6.82105        4.12624       -2.43444
C          6.73145        5.64094       -2.21612
C          7.40501        6.44717       -3.33161
C          7.30592        7.96313       -3.13343
C          7.98299        8.76659       -4.24845
C          7.88180       10.28362       -4.06056
C          8.56172       11.08489       -5.17526
C          8.45904       12.60335       -4.99311
C          9.14220       13.39558       -6.11065
H          5.70290        1.34046        4.87739
H          6.30830       -0.27456        4.40122
H          4.59410        1.67398        2.72180
H          4.07844        0.13818        3.43713
H          6.87933       -1.38249        2.43988
H          6.10119       -1.97165        0.94521
H          6.14126       -3.76478        3.38203
H          5.37200       -4.00034        1.75002
H          3.17088       -4.91336        1.75169
H          2.59021       -3.34165        2.41829
H          2.36846       -6.05583        3.84138
H          1.04852       -5.24345        2.96345
H          2.34057       -4.24892        5.27851
H          3.78392        0.65566       -1.53978
H          6.51776        1.72310        1.20597
H          7.20119        0.22683        0.54410
H          5.73476        1.56793       -2.53948
H          7.27042        1.47675       -1.65642
H          6.63440        3.55654       -0.35116
H          5.09168        3.61515       -1.21798
H          6.35448        3.86777       -3.40069
H          7.88030        3.82829       -2.51604
H          7.19148        5.89922       -1.24659
H          5.67067        5.93625       -2.13879
H          6.95321        6.17555       -4.30174
H          8.46768        6.15592       -3.40091
H          7.75442        8.23525       -2.16182
H          6.24265        8.25366       -3.06716
H          7.53740        8.48875       -5.21989
H          9.04669        8.47685       -4.31157
H          8.32529       10.56158       -3.08812
H          6.81779       10.57325       -3.99975
H          8.12041       10.80450       -6.14820
H          9.62636       10.79678       -5.23467
H          8.89890       12.88228       -4.02050
H          7.39508       12.88964       -4.93516
H         10.21580       13.16162       -6.16782
H          9.04747       14.47856       -5.95252
H          8.70195       13.16384       -7.09198
