86

C         -0.51677       -1.10992       -0.87001
C          0.97795       -0.81172       -0.72829
C          1.87411       -1.87458       -1.37388
C          3.37193       -1.57772       -1.24698
C          4.26713       -2.67306       -1.83553
C          5.76553       -2.37396       -1.71699
C          6.65864       -3.51325       -2.21789
C          8.15798       -3.21593       -2.10947
C          9.04269       -4.38772       -2.54664
C         10.54419       -4.09158       -2.45841
C         11.40911       -5.30178       -2.83432
C         12.89520       -4.99863       -2.76852
O         13.62010       -6.21703       -3.07262
C         14.99845       -6.03259       -3.20748
N         15.48522       -7.26046       -3.83701
C         16.49059       -8.03988       -3.40048
N         17.44954       -7.50542       -2.60699
C         18.58750       -8.33548       -2.19471
C         19.79368       -7.45657       -1.90385
O         20.74389       -8.25065       -1.25571
C         21.99236       -7.56525       -1.03493
C         22.97546       -8.53039       -0.39738
C         24.32453       -7.86695       -0.09439
C         25.33284       -8.82075        0.55541
C         26.67423       -8.15595        0.88112
C         27.67927       -9.09781        1.55358
C         29.01596       -8.42582        1.87627
O         18.89345       -9.22385       -3.26592
C         17.83073      -10.09377       -3.48778
N         16.56765       -9.33887       -3.73326
C         15.46326      -10.08533       -4.33894
C         15.49381      -10.05317       -5.87480
F         14.43395      -10.82148       -6.33449
H         -1.13088       -0.33541       -0.39060
H         -0.77781       -2.07346       -0.40696
H         -0.81538       -1.16206       -1.92781
H          1.23656       -0.72274        0.34059
H          1.20200        0.17203       -1.17478
H          1.61030       -1.97530       -2.44156
H          1.65744       -2.85687       -0.91759
H          3.62580       -1.43692       -0.18146
H          3.59646       -0.61512       -1.73917
H          4.00823       -2.82832       -2.89767
H          4.04698       -3.62984       -1.32972
H          6.01051       -2.15966       -0.66172
H          6.00015       -1.44953       -2.27359
H          6.40785       -3.74199       -3.26870
H          6.42775       -4.43039       -1.64748
H          8.40198       -2.94573       -1.06686
H          8.39967       -2.32571       -2.71638
H          8.78853       -4.67356       -3.58227
H          8.81011       -5.26944       -1.92426
H         10.79227       -3.76615       -1.43356
H         10.78768       -3.24005       -3.11697
H         11.16054       -5.64177       -3.85245
H         11.18947       -6.14195       -2.15637
H         13.18646       -4.64652       -1.76200
H         13.17846       -4.21915       -3.50044
H         15.51185       -5.90463       -2.23419
H         15.22382       -5.15975       -3.85115
H         14.82429       -7.65473       -4.50078
H         17.61664       -6.50758       -2.70315
H         18.31662       -8.91964       -1.29768
H         19.46565       -6.60164       -1.27229
H         20.17572       -7.04844       -2.86319
H         21.81613       -6.68891       -0.38137
H         22.37640       -7.19168       -2.00384
H         23.11850       -9.38982       -1.07179
H         22.53346       -8.92575        0.53121
H         24.16664       -6.99917        0.56948
H         24.75563       -7.46187       -1.02655
H         25.50321       -9.68362       -0.11203
H         24.89637       -9.23574        1.48062
H         26.49897       -7.28349        1.53560
H         27.11734       -7.75194       -0.04631
H         27.85209       -9.96978        0.90037
H         27.23447       -9.49901        2.47998
H         29.50901       -8.05699        0.96467
H         29.70793       -9.12261        2.36882
H         28.87880       -7.56570        2.54844
H         17.66042      -10.77786       -2.63444
H         18.07081      -10.67546       -4.38783
H         14.50364       -9.70322       -3.96158
H         15.53837      -11.12898       -3.99890
H         16.43042      -10.47698       -6.26987
H         15.37843       -9.03120       -6.27330
