111

C          1.76101       -3.07032       12.93911
C          3.28896       -3.01717       12.86054
C          3.81689       -1.78459       12.11741
C          5.34513       -1.73123       12.01900
C          5.87135       -0.48409       11.30129
C          7.39856       -0.43790       11.17924
C          7.91467        0.82263       10.47788
C          9.43816        0.86914       10.31395
C          9.92530        2.13814        9.60684
C         11.44049        2.19598        9.37945
C         11.87412        3.46547        8.63980
C         13.37030        3.53827        8.30638
C         13.70562        4.79962        7.50186
C         15.18417        5.01564        7.10544
C         15.78616        3.84998        6.31354
N         15.14699        3.76526        4.95282
C         15.29293        5.01933        4.09068
C         14.76064        6.22551        4.88960
C         15.37871        6.31811        6.29532
C         14.91637        7.53387        4.09131
O         14.44269        7.42521        2.75953
C         13.01337        7.47788        2.63535
C         12.63882        7.32829        1.17063
C         11.12063        7.29488        0.95953
C         10.71251        7.10298       -0.50474
C          9.19523        7.03386       -0.70670
C          8.77636        6.82774       -2.16585
C          7.25867        6.74621       -2.36167
C          6.83735        6.53698       -3.81971
C          5.31973        6.46481       -4.01748
C          4.89780        6.25674       -5.47599
C          3.38004        6.20261       -5.66736
C         16.72610        5.14299        3.54101
C         17.41689        3.82260        3.14265
O         16.41598        2.81799        2.85987
C         16.87826        1.69220        2.07938
C         16.65361        1.89663        0.59407
O         17.49787        2.93719        0.13370
C         17.31842        3.21583       -1.25351
H          1.41559       -3.95976       13.48395
H          1.31012       -3.10048       11.93572
H          1.35615       -2.18711       13.45527
H          3.66464       -3.92831       12.36472
H          3.71150       -3.03343       13.87955
H          3.45066       -0.87263       12.62142
H          3.38470       -1.75969       11.10112
H          5.70786       -2.63405       11.49662
H          5.77790       -1.77687       13.03401
H          5.52129        0.41719       11.83457
H          5.42475       -0.42832       10.29264
H          7.74752       -1.33079       10.63110
H          7.84829       -0.50712       12.18523
H          7.58216        1.71302       11.03986
H          7.44223        0.90303        9.48274
H          9.77120       -0.01753        9.74610
H          9.91846        0.79147       11.30478
H          9.61187        3.02181       10.18970
H          9.41315        2.22590        8.63204
H         11.75673        1.30847        8.80287
H         11.96586        2.13213       10.34772
H         11.59507        4.35048        9.23699
H         11.29649        3.54646        7.70116
H         13.64764        2.62787        7.74402
H         13.96730        3.51300        9.23361
H         13.39567        5.68486        8.08026
H         13.05677        4.81968        6.60665
H         15.77567        5.08812        8.03244
H         15.63386        2.87997        6.80294
H         16.86360        3.98691        6.15598
H         14.14493        3.57424        5.07669
H         15.55018        2.99949        4.35426
H         14.62684        4.83089        3.23883
H         13.67684        6.05924        5.01233
H         14.91849        7.15787        6.83605
H         16.45376        6.55290        6.22522
H         15.97739        7.81834        4.01673
H         14.39714        8.34558        4.63476
H         12.64604        8.43783        3.04640
H         12.53920        6.66724        3.22505
H         13.09168        6.39953        0.78440
H         13.08739        8.15579        0.59885
H         10.67388        8.22856        1.34243
H         10.68357        6.48082        1.56521
H         11.17540        6.17867       -0.89375
H         11.12768        7.92632       -1.11105
H          8.73386        7.96021       -0.32173
H          8.78311        6.21493       -0.09072
H          9.24388        5.90473       -2.55231
H          9.18068        7.65005       -2.78157
H          6.79152        7.66955       -1.97619
H          6.85478        5.92480       -1.74363
H          7.29923        5.61004       -4.20320
H          7.24688        7.35503       -4.43803
H          4.85723        7.39162       -3.63398
H          4.90863        5.64673       -3.39949
H          5.35125        5.32489       -5.85501
H          5.31850        7.06805       -6.09397
H          2.93211        5.38582       -5.08191
H          3.11180        6.04116       -6.72022
H          2.90304        7.13944       -5.34345
H         17.38190        5.66859        4.25030
H         16.63642        5.78942        2.65830
H         18.06825        3.45395        3.95639
H         18.03946        3.98145        2.25314
H         16.29654        0.82254        2.41698
H         17.94272        1.50236        2.29268
H         15.58931        2.14445        0.40793
H         16.87063        0.94274        0.07093
H         18.01193        4.02469       -1.50838
H         16.28470        3.54088       -1.46652
H         17.54964        2.33131       -1.87254
