70

O          3.10181        1.01473       -0.26932
C          3.29986       -0.18403       -0.05240
N          2.39729       -1.16981       -0.34332
C          1.09300       -1.07946       -0.88956
C          0.38888       -2.28634       -1.03970
C         -0.89567       -2.28970       -1.57774
C         -1.49491       -1.08927       -1.97117
C         -0.79310        0.10820       -1.81870
C          0.49608        0.13007       -1.28098
C          4.58467       -0.69510        0.60921
C          5.82695        0.18384        0.39663
C          5.88032        1.49168        1.20425
C          5.42946        2.70183        0.40433
N          5.60031        3.92272        1.26514
C          7.02401        4.09493        1.71332
C          7.61755        2.82272        2.37479
O          7.25247        1.65776        1.61161
C          7.33328        2.61494        3.89199
C          5.91751        2.71292        4.49277
C          5.44617        4.14438        4.77322
S          3.90021        4.23585        5.71531
C          2.63537        3.93410        4.50481
S          2.92643        3.73813        2.84932
N          1.39067        3.89165        5.01593
C          1.06114        4.05326        6.44128
C          0.21518        2.86528        6.91319
O         -0.95169        2.70633        6.11973
C         -0.61061        2.49936        4.75202
C          0.19318        3.67134        4.18817
C          9.14048        2.96971        2.21715
C          9.88099        2.09038        1.42431
C         11.25952        2.29266        1.30070
N         11.92664        3.29368        1.88888
C         11.20846        4.13650        2.64392
C          9.83178        4.01783        2.84230
H          2.69326       -2.11810       -0.13006
H          0.85435       -3.22718       -0.73454
H         -1.42808       -3.23437       -1.69040
H         -2.49835       -1.08901       -2.39656
H         -1.25070        1.04933       -2.12593
H          1.03998        1.06313       -1.16958
H          4.81051       -1.71013        0.24903
H          4.38075       -0.79597        1.68990
H          5.96836        0.39192       -0.67489
H          6.70466       -0.39315        0.72038
H          5.22876        1.39007        2.09061
H          4.37440        2.59775        0.12407
H          6.05180        2.83243       -0.49221
H          4.88512        3.86688        2.06453
H          5.31972        4.75623        0.73457
H          7.07291        4.96026        2.38472
H          7.60156        4.32334        0.80813
H          7.98661        3.30364        4.44899
H          7.72989        1.61004        4.09736
H          5.94252        2.18339        5.45646
H          5.16406        2.18982        3.89009
H          5.31003        4.76703        3.87898
H          6.15834        4.66731        5.43119
H          0.49979        4.99391        6.56151
H          1.97493        4.11823        7.04285
H         -0.12289        3.03702        7.94330
H          0.82877        1.94301        6.88998
H         -1.55696        2.40097        4.20467
H         -0.03410        1.56068        4.63772
H         -0.41169        4.59251        4.20959
H          0.50815        3.47604        3.15778
H          9.39735        1.25996        0.91533
H         11.85742        1.60915        0.69159
H         11.76219        4.95041        3.11996
H          9.32853        4.74538        3.48254
