107

C         10.39931        3.43392      -11.91055
C         10.11534        1.98768      -11.49773
C         10.32211        1.73211      -10.00067
C         10.04344        0.28549       -9.57994
C         10.28854        0.02168       -8.09085
C         10.03743       -1.43233       -7.67818
C         10.36747       -1.71603       -6.20952
C         10.17273       -3.18551       -5.82033
C         10.58809       -3.49710       -4.37597
C         10.32272       -4.94130       -3.95891
N         11.07118       -5.92165       -4.84420
C         12.51328       -6.12194       -4.43787
C         13.26430       -6.86983       -5.53514
C         12.56072       -8.17156       -5.94048
C         11.07811       -7.93886       -6.27963
C         10.33721       -7.24853       -5.10999
C         10.16240       -8.10207       -3.84964
C          9.16758       -7.56118       -2.83459
O          9.44005       -7.27649       -1.68656
O          7.94222       -7.46028       -3.39760
C          6.85513       -6.97298       -2.55075
C          6.66916       -5.46999       -2.71138
C          6.34215       -5.02738       -4.14341
C          6.34024       -3.50592       -4.32603
C          5.99234       -3.06686       -5.75002
C         10.37655       -9.23123       -6.73319
C          8.86795       -9.08557       -6.96441
C          8.18003      -10.43235       -7.22989
S          6.43454      -10.40725       -6.74928
C          6.55722      -10.60736       -4.96601
S          7.97405      -11.06048       -4.19093
N          5.38695      -10.39404       -4.32369
C          4.16005       -9.95573       -5.00707
C          4.01587       -8.42792       -5.04629
C          2.76832       -7.96570       -5.80524
C          2.62857       -6.44125       -5.83977
C          5.28210      -10.58455       -2.86829
C          4.88670      -12.01211       -2.47584
C          4.81449      -12.18947       -0.95569
C          4.40311      -13.60430       -0.54114
H         10.24425        3.58273      -12.98773
H         11.43759        3.71801      -11.68282
H          9.74124        4.13808      -11.38021
H         10.76362        1.30552      -12.07389
H          9.08014        1.72207      -11.77171
H          9.67491        2.41384       -9.42111
H         11.35883        1.99744       -9.72710
H         10.67713       -0.39431      -10.17696
H          9.00059        0.02478       -9.83273
H          9.64988        0.69000       -7.48754
H         11.32934        0.29371       -7.84142
H         10.64300       -2.09809       -8.31948
H          8.98390       -1.69692       -7.87665
H          9.74105       -1.08536       -5.55608
H         11.41154       -1.42192       -6.00548
H         10.75958       -3.79366       -6.54004
H          9.11850       -3.47428       -5.97046
H         10.01269       -2.86506       -3.68214
H         11.64390       -3.22604       -4.21143
H          9.25807       -5.17558       -4.07877
H         10.60742       -5.14749       -2.92024
H         11.09909       -5.46947       -5.77267
H         12.50217       -6.66454       -3.48401
H         12.93825       -5.12692       -4.25740
H         14.28497       -7.06723       -5.17903
H         13.36935       -6.20961       -6.41341
H         12.64521       -8.91650       -5.13301
H         13.06827       -8.60868       -6.81156
H         11.03248       -7.22360       -7.12666
H          9.34419       -6.92598       -5.45047
H         11.10468       -8.29931       -3.32717
H          9.75444       -9.07591       -4.17720
H          7.07622       -7.24544       -1.51153
H          5.97852       -7.52976       -2.90312
H          7.57207       -4.95604       -2.34032
H          5.85761       -5.16372       -2.03098
H          5.36064       -5.43548       -4.43636
H          7.06494       -5.47722       -4.84783
H          7.32916       -3.10340       -4.04207
H          5.62707       -3.05509       -3.61680
H          6.69681       -3.48445       -6.48660
H          6.01562       -1.97365       -5.85226
H          4.98578       -3.40455       -6.03591
H         10.54070      -10.01961       -5.98043
H         10.87527       -9.58116       -7.65057
H          8.66220       -8.38504       -7.78988
H          8.39635       -8.66020       -6.06780
H          8.65493      -11.24007       -6.65364
H          8.17630      -10.70663       -8.29416
H          3.31081      -10.41084       -4.47578
H          4.14017      -10.37274       -6.02411
H          4.91839       -8.00069       -5.51289
H          3.97920       -8.04150       -4.01322
H          1.87036       -8.40838       -5.34302
H          2.80434       -8.35688       -6.83538
H          2.56381       -6.02179       -4.82426
H          1.72377       -6.13438       -6.38087
H          3.48911       -5.97260       -6.34103
H          4.53319       -9.86480       -2.50122
H          6.25520      -10.32741       -2.42837
H          5.62653      -12.70934       -2.89883
H          3.91388      -12.26667       -2.92899
H          4.10289      -11.45954       -0.53239
H          5.79708      -11.94628       -0.51793
H          3.41234      -13.86677       -0.93970
H          4.35839      -13.70219        0.55160
H          5.11904      -14.35158       -0.91298
