62

C          9.30808        2.04770        1.00969
C          7.88030        2.31319        1.49321
C          7.10953        1.02482        1.80733
C          5.70839        1.24689        2.39230
N          4.79969        1.98490        1.48804
C          4.55608        3.28935        1.73591
O          5.00571        3.88424        2.73680
C          3.72656        4.11215        0.72960
N          2.63856        4.87299        1.35769
C          2.86889        6.07884        1.94334
N          1.85111        6.93900        2.11047
C          1.85602        8.13413        2.95998
C          0.44810        8.44411        3.50006
C          0.48006        9.69307        4.40552
C          1.37517        9.59162        5.64410
C         -0.57615        8.62969        2.37095
N          4.10976        6.36388        2.34717
C          1.29384        4.28044        1.33589
C          0.52853        4.50585        0.02085
C         -0.91582        3.98002        0.06403
C         -1.82506        4.87084        0.91875
S         -3.50168        4.18454        0.98607
O         -4.09786        4.25677       -0.32569
O         -3.47493        2.95835        1.74800
Cl        -4.41491        5.63783        2.17317
C          4.33146        1.26990        0.29709
H          9.83348        2.98527        0.78465
H          9.31741        1.43469        0.09627
H          9.89404        1.51398        1.77174
H          7.33816        2.89153        0.72493
H          7.90070        2.95076        2.39169
H          7.66774        0.43031        2.54868
H          7.05168        0.39256        0.90455
H          5.76624        1.82437        3.32172
H          5.22719        0.28290        2.61551
H          3.28493        3.51095       -0.07118
H          4.42516        4.81653        0.25212
H          1.02798        6.80552        1.53276
H          2.23628        9.00222        2.39155
H          2.54363        7.94740        3.79645
H          0.13983        7.58179        4.11923
H         -0.55461        9.88926        4.72518
H          0.77460       10.56710        3.79924
H          1.13234        8.70280        6.24517
H          1.23807       10.46921        6.28840
H          2.44535        9.54813        5.39516
H         -0.29288        9.45671        1.70256
H         -1.56481        8.86242        2.78742
H         -0.71652        7.72869        1.75205
H          4.70072        5.53395        2.60102
H          4.35299        7.30380        2.63287
H          0.74299        4.68120        2.19811
H          1.40650        3.20153        1.52427
H          1.06159        4.00372       -0.80090
H          0.52987        5.57817       -0.24096
H         -0.92992        2.94946        0.45185
H         -1.31429        3.93861       -0.95873
H         -1.93707        5.87834        0.49421
H         -1.51128        4.94512        1.96869
H          4.46181        0.19640        0.47171
H          4.90510        1.53719       -0.60290
H          3.26357        1.44166        0.11444
