81

N          1.35888       -0.40468       -1.31737
C          2.77612       -0.32052       -0.95162
C          3.05209       -1.14762        0.30638
C          4.52978       -1.16781        0.70462
C          4.80558       -2.05510        1.92473
C          6.29749       -2.10176        2.27984
C          6.70085       -2.94874        3.50175
C          6.26918       -2.23591        4.80213
O          6.24417       -3.15343        5.90610
C          6.13205       -2.53828        7.20921
C          6.31246       -3.61914        8.25989
C          6.26919       -3.07990        9.69467
C          6.55374       -4.16443       10.73977
C          6.48717       -3.65710       12.18461
C          6.80456       -4.74192       13.21669
O          8.13872       -3.05278        3.39995
C          8.78158       -3.87160        4.37392
C          8.25376       -5.30908        4.33949
N          6.74590       -5.24324        4.44598
C          6.11423       -4.36695        3.38983
C          8.77281       -6.18433        5.48456
O         10.17905       -6.04810        5.49378
C         10.86419       -6.91820        6.36487
C         10.88159       -8.28204        6.06345
C         11.59365       -9.18844        6.85562
C         11.63623      -10.65644        6.52051
C         12.29190       -8.67368        7.95883
C         12.27965       -7.30993        8.23752
C         11.56897       -6.38347        7.45463
C         11.63057       -4.90546        7.81358
C         12.33390       -4.05905        6.73646
C         10.26456       -4.31384        8.20748
H          1.19616        0.01927       -2.23043
H          0.78198        0.11293       -0.65267
H          3.14507        0.71455       -0.79593
H          3.35962       -0.73575       -1.78909
H          2.68913       -2.17326        0.12885
H          2.45027       -0.74909        1.14295
H          4.87841       -0.14196        0.91295
H          5.13508       -1.52755       -0.14501
H          4.42832       -3.06856        1.70490
H          4.21109       -1.68640        2.77788
H          6.67714       -1.08185        2.45213
H          6.87239       -2.49496        1.42736
H          5.26723       -1.79079        4.67465
H          6.98811       -1.42145        4.99741
H          5.14804       -2.04387        7.29270
H          6.91446       -1.76369        7.29878
H          7.28269       -4.11376        8.08817
H          5.53025       -4.38624        8.12844
H          5.28287       -2.62657        9.89070
H          7.00753       -2.26696        9.80345
H          7.55325       -4.59504       10.55056
H          5.83685       -4.99459       10.61187
H          5.48251       -3.24495       12.37740
H          7.18841       -2.81441       12.30617
H          6.10328       -5.58607       13.13996
H          6.74092       -4.35121       14.24086
H          7.81988       -5.14210       13.07725
H          8.68586       -3.45128        5.38943
H          9.84497       -3.88201        4.11186
H          8.48189       -5.76271        3.36336
H          6.50048       -4.76340        5.35133
H          6.34076       -6.18642        4.42426
H          5.03107       -4.38485        3.56169
H          6.34087       -4.79788        2.40600
H          8.46297       -7.23578        5.33228
H          8.34021       -5.84452        6.44870
H         10.35425       -8.63799        5.17500
H         10.98530      -10.89827        5.67099
H         11.31951      -11.26916        7.37658
H         12.65762      -10.97153        6.26086
H         12.86135       -9.34875        8.60012
H         12.84366       -6.93599        9.09469
H         12.26018       -4.85772        8.71692
H         11.75765       -4.03593        5.80176
H         13.32776       -4.46455        6.50612
H         12.46389       -3.02407        7.08401
H          9.61091       -4.19151        7.33257
H         10.39279       -3.31931        8.65815
H          9.74865       -4.95267        8.93782
