55

C          3.57829       -1.03613        0.44980
O          2.82590        0.11187        0.01311
C          3.11992        0.67033       -1.18600
C          4.13076        0.20690       -2.03984
C          4.34925        0.82017       -3.27243
C          3.57042        1.90708       -3.68364
C          2.56238        2.36941       -2.84881
C          2.31061        1.77061       -1.59493
C          1.22092        2.27908       -0.76742
N          0.11157        2.72763       -1.39937
N         -0.94873        3.30865       -0.84740
C         -0.98763        3.44559        0.47855
C          0.10247        2.95701        1.28335
C          1.19491        2.39435        0.63472
C          0.05294        3.06911        2.78581
C          1.27658        2.49328        3.50236
C          1.20210        2.37954        5.02875
C          1.67224        3.60798        5.90076
C          0.86531        4.96218        5.91253
C         -0.61075        4.96508        6.45363
F         -0.69083        4.38628        7.65696
F         -1.02706        6.23889        6.54575
F         -1.43118        4.31608        5.59714
F          1.57186        5.82020        6.68216
F          0.83447        5.46119        4.63483
F          1.77137        3.18997        7.18434
F          2.92279        3.93818        5.45350
F         -0.04651        1.99649        5.44119
F          2.06784        1.37600        5.39302
Si        -2.67987        4.32963        0.91843
C         -2.66732        5.91236       -0.09057
C         -3.99749        3.12056        0.34764
C         -2.88909        4.72899        2.73844
H          3.15057       -1.30841        1.41921
H          4.64244       -0.78790        0.57186
H          3.45976       -1.87379       -0.25241
H          4.74940       -0.63836       -1.74574
H          5.14595        0.44621       -3.91601
H          3.76292        2.39933       -4.63556
H          1.99459        3.25425       -3.14522
H          0.04414        2.62718       -2.41423
H          2.06398        2.04092        1.18074
H         -0.85786        2.55682        3.13453
H         -0.09899        4.12635        3.04287
H          2.19025        3.05449        3.25932
H          1.43855        1.45391        3.17863
H         -2.56747        5.70803       -1.16393
H         -1.85081        6.58055        0.21593
H         -3.61368        6.44929        0.06795
H         -3.89379        2.89197       -0.72106
H         -4.99211        3.56157        0.50685
H         -3.95731        2.17846        0.91173
H         -2.11836        5.40777        3.12503
H         -2.93186        3.84011        3.37985
H         -3.85435        5.24741        2.84272
