56

C          1.30836       -1.03638       -0.15659
C          2.65728       -0.33639       -0.33918
C          3.42742       -0.81353       -1.57653
C          4.76270       -0.08985       -1.77716
C          5.54679       -0.57157       -3.00338
C          6.84377        0.21723       -3.22875
C          7.65362       -0.33932       -4.40017
S          9.12120        0.73626       -4.65175
C          9.85300       -0.00643       -6.02976
N         10.77645        0.50784       -6.80667
N         11.08292       -0.46536       -7.74908
C         10.33257       -1.49030       -7.48810
O          9.50734       -1.29183       -6.40336
C         10.24475       -2.77753       -8.24827
O         10.91378       -3.87939       -7.65565
C         10.35045       -4.30238       -6.39941
N         10.93935       -5.47809       -5.90402
N          8.91581       -4.56065       -6.63778
C          8.19363       -3.94633       -7.59561
N          6.87814       -4.15567       -7.68239
C          5.90235       -3.38612       -8.45069
C          4.63670       -3.16341       -7.55859
N          4.28979       -4.49944       -7.03564
N          4.99048       -2.23462       -6.49568
N          3.53594       -2.54393       -8.27410
N          8.83867       -3.15502       -8.46952
H          0.78579       -0.67115        0.73749
H          1.43254       -2.12400       -0.04560
H          0.64770       -0.86377       -1.01937
H          3.28057       -0.49422        0.55695
H          2.50111        0.75316       -0.40973
H          2.79694       -0.67146       -2.47294
H          3.60438       -1.90148       -1.49766
H          5.38806       -0.21449       -0.87658
H          4.57816        0.99418       -1.86966
H          4.91069       -0.48423       -3.90185
H          5.78075       -1.64565       -2.88796
H          7.45570        0.19511       -2.31255
H          6.59904        1.27489       -3.41698
H          7.06380       -0.34207       -5.32769
H          7.99712       -1.36184       -4.18901
H         10.72994       -2.62140       -9.22024
H         10.46633       -3.49499       -5.65613
H         11.03685       -6.20331       -6.61504
H         11.83232       -5.30725       -5.44708
H          8.44270       -5.11135       -5.92838
H          6.41344       -4.81389       -7.04521
H          5.62404       -3.92484       -9.37120
H          6.30346       -2.39911       -8.71386
H          3.56277       -4.40573       -6.32369
H          3.90032       -5.10004       -7.76866
H          5.59168       -2.67209       -5.79735
H          4.13775       -1.92623       -6.02462
H          3.20768       -3.10307       -9.06049
H          3.77607       -1.60909       -8.60735
H          8.31984       -2.71279       -9.21952
