91

C          1.30924        1.54947       -0.21195
C          2.74740        1.04803       -0.36380
C          3.18658        0.11492        0.77052
C          4.62186       -0.40153        0.62479
C          5.05335       -1.33058        1.76466
C          6.49963       -1.82193        1.64421
C          6.91823       -2.75110        2.78892
C          8.39125       -3.17150        2.72377
C          8.80011       -4.07261        3.89529
C         10.31006       -4.32562        3.91900
N         10.71420       -5.16088        5.07103
C         10.87191       -4.72215        6.33389
N         11.14563       -5.78367        7.08541
N         11.17389       -6.92051        6.34000
C         10.90518       -6.53670        5.10421
C         10.83746       -7.43631        3.92067
C         11.02638       -8.92052        4.26761
C         11.05527       -9.76446        2.98896
S         10.89635      -11.54271        3.29346
C          9.10813      -11.71670        3.35507
S          8.03592      -10.45300        3.20568
N          8.73859      -13.02134        3.51234
C          9.69330      -14.06785        3.80190
C          9.98700      -15.02592        2.82498
C         10.87668      -16.05916        3.12114
C         11.46786      -16.13712        4.38593
C         11.16362      -15.18265        5.36073
C         10.27135      -14.14838        5.07516
C          7.36697      -13.44717        3.34792
C          6.68384      -13.99311        4.43712
C          5.38094      -14.46551        4.26345
C          4.77010      -14.39640        3.00900
C          5.46425      -13.85451        1.92237
C          6.76518      -13.38055        2.08685
C         11.40542       -5.84219        8.52915
C         12.84214       -6.31496        8.78236
C         13.15673       -6.71276       10.23029
C         13.69008       -5.59966       11.21004
C         12.79284       -4.35913       11.58727
C         11.41169       -4.60211       12.29947
F         11.53557       -5.43705       13.33537
F         10.93695       -3.42417       12.72986
F         10.51511       -5.11887       11.42201
F         13.53557       -3.58258       12.40348
F         12.53653       -3.65093       10.43656
F         14.05386       -6.20421       12.36368
F         14.80469       -5.06965       10.62235
F         12.07830       -7.32501       10.81571
F         14.16889       -7.63231       10.18682
H          1.02784        2.22027       -1.03498
H          1.17596        2.10448        0.72835
H          0.59373        0.71409       -0.20584
H          3.43547        1.90887       -0.41143
H          2.85536        0.52263       -1.32766
H          2.49340       -0.74325        0.82474
H          3.08581        0.64365        1.73511
H          5.31499        0.45663        0.57115
H          4.72428       -0.93249       -0.33796
H          4.37331       -2.19941        1.80490
H          4.92893       -0.80564        2.72828
H          7.17810       -0.95124        1.61579
H          6.63443       -2.34270        0.68052
H          6.27772       -3.64971        2.78813
H          6.73169       -2.24571        3.75279
H          9.02410       -2.26680        2.72034
H          8.59170       -3.68909        1.77056
H          8.26587       -5.03502        3.84529
H          8.50443       -3.59800        4.84633
H         10.87240       -3.38414        3.98840
H         10.65094       -4.84357        3.01365
H         10.78636       -3.69506        6.67325
H         11.59984       -7.10466        3.19275
H          9.86067       -7.30452        3.42335
H         10.18630       -9.24656        4.89571
H         11.94958       -9.06883        4.84520
H         12.01067       -9.65839        2.45317
H         10.22849       -9.48692        2.31732
H          9.51542      -14.95811        1.84450
H         11.10656      -16.80734        2.36217
H         12.16031      -16.94743        4.61531
H         11.61343      -15.24916        6.35185
H         10.01741      -13.40231        5.82853
H          7.17105      -14.04862        5.41078
H          4.84305      -14.88988        5.11159
H          3.75427      -14.76937        2.87568
H          4.99315      -13.80580        0.94022
H          7.31602      -12.95429        1.24858
H         10.67972       -6.54493        8.95685
H         11.20374       -4.84392        8.92996
H         13.57292       -5.56410        8.45308
H         13.01311       -7.22861        8.19618
