89

C          1.53095        0.40687       -0.86742
C          2.92486        0.95378       -0.54969
C          3.39263        0.62891        0.87336
C          4.78712        1.17349        1.20005
C          5.24171        0.86196        2.63020
C          6.64207        1.39597        2.95287
C          7.06061        1.12247        4.40082
C          8.47761        1.66490        4.71797
C          8.84447        1.48149        6.15856
N          8.61014        2.52120        6.97135
C          8.85216        2.51837        8.31462
C          9.30623        1.39694        8.96797
C          9.50417        0.18841        8.19308
C          9.33558        0.28750        6.75128
C          9.63626       -0.81149        5.90493
C         10.07703       -1.99200        6.44943
C         10.15291       -2.12850        7.84752
C          9.85130       -1.10192        8.73560
C          9.82569       -1.40818       10.22102
C          9.97055       -2.87999       10.62632
P          9.60431       -3.06267       12.40387
O          8.33751       -2.40205       12.80847
O          9.68868       -4.63475       12.71191
C          8.47814       -5.44804       12.83800
C          8.62085       -6.35060       14.04583
O         10.96194       -2.50156       13.03892
C         11.04323       -2.28897       14.48735
C         11.58716       -0.90020       14.74853
C          9.65521        1.62288       10.42123
C         11.17023        1.77950       10.62966
O         11.37030        2.04757       11.99909
C         12.74044        1.93961       12.39116
C         12.85010        2.37034       13.84868
O         14.04837        1.80597       14.34914
C         14.26992        2.09283       15.72646
C         15.55665        1.38934       16.13306
O         15.77085        1.65334       17.50728
C         16.95698        1.04601       17.99790
H          1.22846        0.65117       -1.89459
H          0.77239        0.82629       -0.18986
H          1.49719       -0.68785       -0.76326
H          2.93464        2.04741       -0.69425
H          3.65367        0.54794       -1.27173
H          3.38416       -0.46573        1.01855
H          2.66345        1.03413        1.59717
H          4.79901        2.26645        1.04380
H          5.51859        0.75804        0.48492
H          5.22041       -0.22952        2.79295
H          4.51529        1.28887        3.34364
H          6.67425        2.48257        2.76125
H          7.37752        0.94370        2.26544
H          7.02985        0.04098        4.60725
H          6.33638        1.58611        5.09131
H          8.51799        2.73944        4.47564
H          9.22102        1.18237        4.06929
H          8.24647        3.37676        6.55159
H          8.67222        3.46100        8.82668
H          9.52099       -0.71508        4.82750
H         10.33665       -2.83420        5.80824
H         10.44544       -3.09657        8.25137
H          8.86627       -1.05719       10.63103
H         10.60675       -0.83538       10.74229
H         10.97272       -3.28805       10.43098
H          9.23443       -3.51668       10.11095
H          8.38660       -6.03056       11.90833
H          7.61208       -4.77769       12.92982
H          9.51270       -6.98557       13.96239
H          7.74038       -7.00350       14.12588
H          8.69478       -5.76044       14.96871
H         11.70270       -3.07385       14.88248
H         10.04181       -2.41122       14.92577
H         12.59045       -0.77406       14.32009
H         11.65718       -0.72558       15.83162
H         10.92009       -0.14026       14.32021
H          9.28319        0.83400       11.08115
H          9.17696        2.55346       10.75698
H         11.55983        2.60466        9.99809
H         11.70888        0.86019       10.32349
H         13.38100        2.56662       11.74424
H         13.08147        0.89162       12.30032
H         11.96863        1.99784       14.40422
H         12.86022        3.47344       13.93902
H         13.42656        1.72406       16.34106
H         14.36115        3.18232       15.89412
H         16.40002        1.76142       15.51812
H         15.46228        0.30058       15.94599
H         17.03669        1.30894       19.05909
H         17.85218        1.41608       17.46490
H         16.91854       -0.05484       17.89960
