52

C          8.58829       -0.35559       -6.20291
C          8.16845       -0.28140       -4.73278
C          8.76244       -1.40416       -3.87483
C          8.36232       -1.32521       -2.39801
C          8.95397       -2.44903       -1.54102
C          8.57939       -2.34902       -0.05879
C          9.13254       -3.50021        0.78915
C          8.78327       -3.37376        2.27703
C          9.13473       -4.60154        3.12858
C         10.65950       -4.88767        3.17464
C         10.98532       -6.04943        4.03170
N         11.28446       -6.03904        5.34620
C         11.46114       -7.32672        5.84396
C         11.25996       -8.15901        4.77844
N         10.96905       -7.35506        3.67925
N         10.68887       -7.74914        2.36498
C         11.84576       -7.61135        7.25652
C         13.34867       -7.91383        7.40273
C         13.72143       -8.07893        8.89142
F         12.95948       -9.00006        9.51666
F         15.01692       -8.46532        8.99938
F         13.58015       -6.89871        9.54574
O         13.61100       -9.09370        6.67095
H          8.14853        0.46258       -6.78913
H          8.26880       -1.30242       -6.66334
H          9.68138       -0.28961       -6.30982
H          7.06816       -0.31376       -4.66069
H          8.46918        0.69304       -4.31202
H          9.86371       -1.37982       -3.95620
H          8.45194       -2.38067       -4.28722
H          7.26153       -1.34628       -2.31564
H          8.67632       -0.34958       -1.98739
H         10.05392       -2.44385       -1.64056
H          8.61950       -3.42402       -1.93752
H          7.48063       -2.32257        0.04193
H          8.94282       -1.38861        0.34636
H         10.22743       -3.54411        0.65357
H          8.73859       -4.45709        0.40246
H          7.69957       -3.20259        2.38025
H          9.26960       -2.47839        2.70152
H          8.62298       -5.49095        2.72674
H          8.76683       -4.45969        4.15699
H         11.19851       -4.00607        3.55439
H         11.03435       -5.09496        2.16325
H         11.35382       -5.18699        5.89649
H         11.31986       -9.23793        4.70671
H         11.46345       -8.31678        2.01435
H          9.83397       -8.31023        2.35822
H         11.28535       -8.48483        7.61768
H         11.57704       -6.76285        7.90191
H         13.95073       -7.06028        7.03585
H         14.55098       -9.32418        6.76326
