78

C          0.15115        0.02652        1.45421
C          1.62290       -0.33460        1.23777
C          2.54712        0.29616        2.29061
C          3.99937       -0.07241        2.05602
O          4.79976        0.54337        3.10743
C          6.15167        0.28596        2.96147
N          6.82372        1.03581        4.05925
N          6.91373        0.49714        5.24770
N          7.27048        1.41484        6.11566
C          7.39709        2.59158        5.46981
N          7.11670        2.37751        4.15427
C          7.28872        3.29356        2.97616
C          5.96330        3.95386        2.36201
C          4.86591        4.57790        3.33633
C          5.12859        6.04204        3.89983
C          4.61973        7.28113        3.04429
C          3.14012        7.82428        3.23624
C          2.62464        8.44432        4.60753
C          3.52820        9.49608        5.34664
F          3.91696       10.46937        4.50762
F          2.82714       10.03551        6.35284
F          4.62158        8.89300        5.86141
F          1.45551        9.05600        4.29947
F          2.36227        7.43662        5.47727
F          3.01652        8.78714        2.29197
F          2.28318        6.81095        2.94037
F          5.47293        8.30110        3.28709
F          4.72863        6.94230        1.73061
F          4.59750        6.09314        5.13842
F          6.48313        6.16660        4.02211
F          3.68755        4.52530        2.69434
F          4.79353        3.74001        4.41735
F          6.41077        4.86903        1.48188
F          5.34455        2.96063        1.67861
F          8.15491        4.23386        3.35918
F          7.85502        2.56235        1.99781
C          7.78245        3.83950        6.17565
C          9.26777        3.77316        6.60547
C          9.67244        4.80770        7.67270
C         10.31655        6.16322        7.18311
C          9.51042        7.16494        6.26616
C          8.16246        7.85048        6.73125
C          8.07624        8.74279        8.03467
C          8.96396       10.03989        8.21535
C          8.87148       11.25686        7.20650
C          7.48020       11.95884        6.98050
F          6.88577       12.24465        8.14987
F          7.68708       13.09900        6.30342
F          6.65999       11.17501        6.25233
F          9.71179       12.19484        7.70863
F          9.33929       10.86034        5.99426
F          8.65318       10.50782        9.44944
F         10.26615        9.65292        8.21850
F          6.77316        9.11610        8.12932
F          8.36266        7.93969        9.09050
F          7.74877        8.59178        5.67554
F          7.24579        6.85021        6.91716
F         10.37070        8.13675        5.90173
F          9.17148        6.46032        5.13104
F         10.75396        6.83472        8.26923
F         11.40066        5.80751        6.42805
F          8.62632        5.08371        8.50848
F         10.65510        4.23438        8.43303
H         -0.48433       -0.44288        0.69233
H         -0.00843        1.11291        1.39776
H         -0.20358       -0.31256        2.43805
H          1.93807       -0.01242        0.23149
H          1.74008       -1.43062        1.25946
H          2.25258       -0.03722        3.29830
H          2.44763        1.39367        2.27348
H          4.35590        0.29368        1.07603
H          4.14807       -1.16635        2.09387
H          6.57477        0.61093        1.99714
H          6.43988       -0.76148        3.16539
H          7.15177        3.86767        7.07733
H          7.56169        4.72792        5.58375
H          9.93810        3.86635        5.74163
H          9.46330        2.79962        7.07562
