85

C         12.28256       16.67685        6.76908
C         11.93177       15.45587        7.62142
C         12.49364       14.14600        7.06012
C         12.15621       12.91929        7.91187
C         12.71078       11.60765        7.34827
C         12.37140       10.38471        8.20495
C         12.89302        9.06461        7.62993
C         12.54266        7.84848        8.49189
C         13.00999        6.51521        7.90023
C         12.65158        5.31084        8.77543
C         13.04275        3.95949        8.16771
C         12.68411        2.77712        9.07573
C         13.05948        1.39258        8.53041
C         14.55434        1.04475        8.52394
N         15.14501        1.00539        9.88641
C         14.95892        0.14119       10.91168
N         15.70184        0.54390       11.95811
N         16.35571        1.63377       11.60210
N         16.02729        1.92192       10.36452
C         16.61711        3.03722        9.59328
C         17.53300        3.88696       10.47343
C         18.14711        5.01492        9.63735
S         19.17567        6.04477       10.71269
O         18.31176        6.81183       11.58434
O         20.23742        5.21686       11.21995
O         19.81596        7.04805        9.61580
C         14.13884       -1.09592       10.93242
C         14.76290       -2.17100        9.99391
O         15.55970       -1.80559        9.12247
N         14.37322       -3.45174       10.18737
C         15.00133       -4.51875        9.37902
C         14.09418       -5.07564        8.27658
C         13.73951       -4.07275        7.17348
C         12.85994       -4.68492        6.08149
C         13.44449       -3.88941       11.22823
H         11.86659       17.59977        7.19587
H         11.88824       16.57549        5.74700
H         13.37220       16.80782        6.69116
H         10.83563       15.36995        7.71088
H         12.30855       15.60083        8.64802
H         13.59042       14.23323        6.96317
H         12.11083       13.99605        6.03511
H         11.05967       12.83605        8.01207
H         12.54249       13.06898        8.93550
H         13.80728       11.68906        7.24456
H         12.32052       11.45660        6.32644
H         11.27586       10.31809        8.32481
H         12.77815       10.52696        9.22165
H         13.98904        9.12496        7.50710
H         12.48191        8.92242        6.61521
H         11.44938        7.81150        8.63911
H         12.97840        7.97602        9.49855
H         14.10347        6.54541        7.74172
H         12.56369        6.38494        6.89919
H         11.56530        5.31206        8.96859
H         13.13019        5.42219        9.76508
H         14.12419        3.96705        7.93399
H         12.53775        3.83254        7.19526
H         11.59626        2.78651        9.24402
H         13.12632        2.92390       10.07817
H         12.73212        1.29794        7.48267
H         12.51364        0.61148        9.08020
H         15.13791        1.77187        7.94792
H         14.74707        0.04576        8.11136
H         15.78482        3.63177        9.19012
H         17.17139        2.58969        8.75355
H         18.33124        3.26758       10.90246
H         16.95944        4.30916       11.31066
H         17.39078        5.68058        9.19879
H         18.81048        4.64044        8.84559
H         19.46039        7.94188        9.78736
H         13.10570       -0.89331       10.61166
H         14.10261       -1.42221       11.97923
H         15.28969       -5.31972       10.07696
H         15.91620       -4.09567        8.94638
H         13.17037       -5.48903        8.71679
H         14.62128       -5.93699        7.83481
H         14.66942       -3.67997        6.73190
H         13.22249       -3.20507        7.61742
H         13.36232       -5.53417        5.59632
H         12.62115       -3.95110        5.30017
H         11.90949       -5.05522        6.49311
H         12.72347       -3.10721       11.48672
H         13.98027       -4.20482       12.13781
H         12.87170       -4.74624       10.85321
