36

C          0.73561       -0.89857        0.01431
O          2.16987       -0.62578       -0.10200
C          2.81912       -1.29991       -1.04129
O          2.36326       -2.12922       -1.80612
C          4.29508       -0.89171       -1.07096
S          5.14986       -2.10628       -2.12446
C          4.71262       -1.59310       -3.82912
C          5.10827       -2.69337       -4.83426
C          5.01542       -2.16291       -6.22340
C          4.11458       -2.51031       -7.15247
F          3.15729       -3.40097       -6.93092
F          4.08073       -2.02425       -8.37395
F          5.95287       -1.23136       -6.54305
C          6.89730       -1.56501       -2.00291
C          7.51757       -2.00161       -0.67488
C          9.02337       -1.70752       -0.65548
S          9.67642       -2.17003        0.97042
O          9.17674       -1.22566        1.94765
O          9.49553       -3.59016        1.11850
O         11.25032       -1.89511        0.74188
H          0.41872       -0.34722        0.90245
H          0.57145       -1.97504        0.13384
H          0.22018       -0.53353       -0.88146
H          4.74994       -0.94543       -0.07241
H          4.43051        0.12373       -1.47016
H          5.21752       -0.63769       -4.02813
H          3.62520       -1.45298       -3.80667
H          4.44883       -3.56328       -4.72072
H          6.14290       -3.03741       -4.66540
H          6.93584       -0.47854       -2.16771
H          7.38100       -2.06427       -2.85628
H          7.35835       -3.07862       -0.51705
H          7.04324       -1.47187        0.16514
H          9.24784       -0.64150       -0.79722
H          9.57558       -2.30065       -1.39722
H         11.50578       -1.12892        1.29276
