59

Br         1.17586        0.01016        2.16501
C          2.82998       -0.01460        1.12674
C          3.60780       -1.29402        1.41105
C          4.85715       -1.35005        0.52044
N          5.70591       -2.51940        0.81915
C          5.65289       -3.78803        0.34478
N          6.66431       -4.49800        0.88943
N          7.32498       -3.73109        1.72269
N          6.75339       -2.52343        1.69932
C          7.18817       -1.44398        2.46301
N          6.50261       -0.39542        2.81951
N          7.36186        0.37868        3.56070
C          8.51399       -0.27141        3.61407
O          8.46670       -1.47014        2.90989
S          9.92653        0.24280        4.43469
C         11.17654       -1.00844        3.93034
C         12.53965       -0.52781        4.43491
C         13.66512       -1.47682        3.99857
C         15.05379       -0.98596        4.42564
C         16.19008       -1.89769        3.95153
C         17.58387       -1.39100        4.34097
C         18.71543       -2.29473        3.84599
C          4.65945       -4.32479       -0.61506
C          3.92807       -5.61737       -0.13860
C          2.97707       -5.38674        1.05210
C          3.62859       -5.12208        2.41427
C          3.17405       -6.20287       -1.33976
H          3.39041        0.87964        1.42200
H          2.52760        0.07110        0.07637
H          2.97466       -2.17231        1.22199
H          3.90892       -1.31463        2.46729
H          5.48226       -0.45861        0.65610
H          4.60260       -1.43882       -0.54410
H         11.16038       -1.08215        2.83466
H         10.89503       -1.97714        4.36427
H         12.52474       -0.44530        5.53388
H         12.73998        0.48297        4.04391
H         13.64108       -1.58817        2.90071
H         13.48277       -2.48256        4.41400
H         15.08839       -0.89386        5.52479
H         15.21457        0.03218        4.03046
H         16.13711       -2.00483        2.85362
H         16.04260       -2.91251        4.36112
H         17.64143       -1.29322        5.43807
H         17.72302       -0.37274        3.93993
H         18.62714       -3.31049        4.25908
H         19.69882       -1.90292        4.13858
H         18.70671       -2.38253        2.74935
H          5.21332       -4.56586       -1.53766
H          3.92307       -3.55149       -0.87665
H          4.70742       -6.33435        0.16895
H          2.35790       -6.29223        1.14154
H          2.26768       -4.57800        0.80157
H          4.37912       -5.88814        2.65482
H          2.87204       -5.13753        3.20950
H          4.12172       -4.14142        2.48167
H          2.38673       -5.51933       -1.69256
H          2.69019       -7.14774       -1.06157
H          3.84760       -6.40828       -2.18318
