81

F          1.53397        0.08891       -2.80592
C          2.73106        0.17841       -2.09444
C          3.39440       -1.19657       -2.08738
C          4.56200       -1.41610       -1.10322
C          5.81503       -0.55026       -1.28797
C          5.64091        0.86378       -0.74529
N          4.97622        0.88504        0.57008
C          4.31760       -0.18707        1.05926
N          3.80704       -0.16427        2.30720
C          3.06744       -1.26738        2.92342
C          2.47079       -0.80098        4.25328
O          1.96591       -1.94882        4.88952
C          1.28618       -1.64686        6.11457
C          0.93665       -2.96286        6.79640
O          0.17415       -2.59949        7.93686
C         -0.22676       -3.59609        8.80289
C         -1.00322       -3.17302        9.89002
C         -1.44832       -4.09801       10.82478
C         -1.13786       -5.46898       10.72761
C         -0.37447       -5.86361        9.62417
C          0.08352       -4.94990        8.66439
C         -1.66977       -6.46143       11.77520
C         -1.36599       -5.99248       13.23456
C          0.06430       -5.94510       13.85671
C          0.57336       -7.34651       14.25552
C          1.10771       -5.26445       12.95058
C         -0.06733       -5.11461       15.15248
C         -3.21612       -6.48327       11.64083
C         -1.17465       -7.89600       11.51861
N          4.14081       -1.28544        0.30228
C          5.05684        2.13591        1.32573
C          6.25719        2.19639        2.32255
C          5.85116        2.75576        3.63479
C          6.27535        3.87339        4.23534
F          7.18729        4.67429        3.70250
F          5.85174        4.29854        5.40766
F          4.89442        2.00935        4.28596
H          2.47999        0.52456       -1.07768
H          3.34507        0.94387       -2.59399
H          3.75129       -1.43905       -3.09978
H          2.61018       -1.93304       -1.85145
H          4.87124       -2.46464       -1.22110
H          6.08296       -0.49577       -2.35082
H          6.65097       -1.04001       -0.76812
H          5.06235        1.49682       -1.43594
H          6.62712        1.33592       -0.62693
H          4.12226        0.56785        2.93973
H          3.72523       -2.13151        3.12077
H          2.25100       -1.59019        2.25865
H          1.67628       -0.04970        4.07287
H          3.25638       -0.31577        4.87096
H          0.36556       -1.07047        5.91213
H          1.93425       -1.04184        6.77432
H          1.85760       -3.50179        7.08089
H          0.35398       -3.60568        6.11192
H         -1.24772       -2.11468        9.98492
H         -2.04955       -3.73290       11.65836
H         -0.10876       -6.91153        9.49089
H          0.67671       -5.31448        7.82630
H         -1.97801       -6.62691       13.89890
H         -1.79396       -4.98236       13.33730
H          0.81358       -7.97276       13.38786
H         -0.17150       -7.88327       14.86171
H          1.49020       -7.25882       14.85708
H          1.28767       -5.82830       12.02578
H          2.06698       -5.18316       13.48377
H          0.79727       -4.25028       12.66254
H         -0.80523       -5.55730       15.83856
H         -0.38735       -4.08488       14.93439
H          0.89402       -5.06428       15.68446
H         -3.65860       -5.50513       11.87457
H         -3.65295       -7.22293       12.32778
H         -3.51055       -6.74881       10.61581
H         -0.08076       -7.97034       11.47531
H         -1.57582       -8.28932       10.57319
H         -1.52151       -8.56039       12.32156
H          3.69200       -2.08055        0.74261
H          4.10573        2.29306        1.85268
H          5.13189        2.94999        0.59392
H          7.08156        2.79072        1.90998
H          6.64970        1.17596        2.47442
