53

C          1.08471        0.27907       -0.14851
O          2.44864       -0.03586        0.09201
C          2.99329       -0.87406       -0.91046
C          4.44572       -1.14376       -0.54364
O          4.97854       -2.00873       -1.54375
C          6.32235       -2.37745       -1.30765
C          6.72817       -3.27626       -2.46742
O          8.06587       -3.72568       -2.23421
C          8.53772       -4.58203       -3.24807
C          9.92310       -5.05829       -2.80910
C         10.63042       -5.91050       -3.86334
N         11.97621       -6.30792       -3.37926
C         12.28103       -7.56537       -3.49594
C         11.15661       -8.30045       -4.14513
C          9.98117       -7.28699       -4.19342
C          9.21142       -7.30100       -5.51381
C         13.57590       -8.13195       -3.05924
C         13.41902       -9.26110       -2.01330
O         14.72383       -9.64009       -1.67052
C         14.76632      -10.63121       -0.62196
C         16.21424      -10.99553       -0.36837
H          0.75286        0.92012        0.67645
H          0.45807       -0.63168       -0.17344
H          0.95618        0.82147       -1.10319
H          2.94022       -0.39163       -1.90662
H          2.44064       -1.83261       -0.97311
H          4.50231       -1.61722        0.45475
H          5.01278       -0.19464       -0.50372
H          6.42822       -2.92488       -0.35037
H          6.98323       -1.48970       -1.26279
H          6.66764       -2.71752       -3.41955
H          6.03746       -4.13773       -2.53036
H          8.59887       -4.05246       -4.22248
H          7.84655       -5.43894       -3.38408
H          9.82867       -5.62934       -1.87189
H         10.52635       -4.16294       -2.58678
H         10.78436       -5.31816       -4.78288
H         12.62441       -5.62334       -2.98319
H         10.92167       -9.23255       -3.61196
H         11.49410       -8.61046       -5.15174
H          9.29173       -7.53097       -3.36993
H          9.87096       -7.06385       -6.36162
H          8.39284       -6.57026       -5.50946
H          8.76822       -8.28861       -5.69618
H         14.23375       -7.35319       -2.64767
H         14.08212       -8.56389       -3.93979
H         12.84880      -10.10881       -2.44381
H         12.85570       -8.88996       -1.13188
H         14.18152      -11.51569       -0.93670
H         14.29065      -10.21526        0.28607
H         16.67707      -11.41849       -1.26932
H         16.27295      -11.74555        0.43166
H         16.79262      -10.11623       -0.05631
