79

C          0.23419        0.00454        0.24400
C          1.76029       -0.05278        0.13405
C          2.48001        0.54783        1.34677
C          4.00822        0.50261        1.24288
C          4.72452        1.10699        2.45498
C          6.25263        1.08335        2.34407
C          6.96223        1.69317        3.55755
C          8.49037        1.70291        3.44071
C          9.18660        2.31984        4.65799
C         10.71116        2.40309        4.52107
C         11.37910        3.05276        5.73959
C         12.87649        3.23057        5.56267
O         13.39353        3.88911        6.74568
C         14.72769        4.28373        6.61139
N         15.06083        5.09728        7.81154
C         15.85164        4.49982        8.75911
C         16.23790        5.13572        9.91572
C         17.05686        4.36915       10.90945
C         16.19547        3.40248       11.81611
N         15.05636        4.02956       12.48626
N         15.61953        2.37595       10.94995
N         17.13638        2.82599       12.76971
C         15.77901        6.47400       10.12261
C         14.94001        7.08456        9.12079
C         14.57725        6.35187        7.96098
C         13.70610        6.93785        6.88686
C         14.54180        7.67336        5.82841
O         15.53431        7.20285        5.31150
O         14.01423        8.87673        5.55804
C         14.70189        9.64527        4.52945
C         14.49882        8.42694        9.30884
C         14.85598        9.13144       10.43576
C         15.66754        8.52894       11.42495
C         16.11824        7.23468       11.27162
H         -0.25095       -0.43255       -0.63956
H         -0.12103        1.04163        0.33851
H         -0.12429       -0.54722        1.12591
H          2.08387        0.47762       -0.77745
H          2.08150       -1.09983        0.00285
H          2.15972        0.01600        2.26040
H          2.15392        1.59455        1.48028
H          4.32665        1.03434        0.32891
H          4.33424       -0.54412        1.11084
H          4.41669        0.56635        3.36706
H          4.38671        2.14909        2.59475
H          6.55974        1.62503        1.43209
H          6.59413        0.04265        2.20522
H          6.66840        1.14106        4.46766
H          6.60432        2.72741        3.70547
H          8.78154        2.26065        2.53323
H          8.85537        0.67198        3.29142
H          8.93149        1.73826        5.56075
H          8.78520        3.33400        4.82961
H         10.96164        2.97812        3.61245
H         11.12398        1.39180        4.36495
H         11.19392        2.44893        6.64192
H         10.92912        4.04220        5.92485
H         13.10094        3.85252        4.67497
H         13.38891        2.25989        5.43374
H         14.91366        4.89919        5.71514
H         15.42759        3.43095        6.60616
H         16.14316        3.47688        8.54265
H         17.62618        5.04669       11.55842
H         17.79700        3.74865       10.38595
H         14.40271        4.45815       11.82885
H         15.35119        4.73434       13.16027
H         16.32891        1.66436       10.76468
H         14.84974        1.92294       11.44591
H         16.62797        2.25413       13.44762
H         17.64782        3.53966       13.29251
H         12.96726        7.61628        7.32216
H         13.14008        6.14190        6.38543
H         14.12394       10.56743        4.43014
H         14.71328        9.08564        3.58681
H         15.73032        9.85661        4.84511
H         13.88272        8.91225        8.55447
H         14.51440       10.15802       10.56596
H         15.94115        9.09662       12.31471
H         16.75017        6.79436       12.04013
