74

C          0.45951        2.19126      -11.81227
C          1.98951        2.22904      -11.85427
C          2.62493        2.66931      -10.53035
C          4.15519        2.73760      -10.57726
C          4.79651        3.17781       -9.25680
C          6.32193        3.30868       -9.33297
C          6.97204        3.73152       -8.01109
C          8.48923        3.92722       -8.11096
C          9.14207        4.31468       -6.77879
C         10.65700        4.54550       -6.88722
C         11.28759        4.78955       -5.52092
O         12.73361        4.94241       -5.57834
C         13.15765        6.26902       -5.81571
N         14.61243        6.28789       -5.92278
C         15.41306        5.79400       -4.96879
N         14.91833        5.10926       -3.94562
N         16.78111        6.01286       -5.09342
C         17.65638        5.74247       -4.00741
O         17.31621        5.18311       -2.97717
O         18.87836        6.20533       -4.27519
C         19.91357        5.95985       -3.25274
C         20.58569        4.61099       -3.44595
C         21.72415        4.40912       -2.43380
C         22.39961        3.04228       -2.56722
C         17.34939        6.45650       -6.39345
C         17.29067        7.97462       -6.64152
C         18.26175        8.43531       -7.76192
N         17.58818        8.27543       -9.05809
O         15.96716        8.37000       -7.02995
H          0.03762        1.86892      -12.77421
H          0.04144        3.18278      -11.58248
H          0.09720        1.49474      -11.04138
H          2.31869        2.91022      -12.65745
H          2.37587        1.23253      -12.12801
H          2.31175        1.97784       -9.72807
H          2.22483        3.65905      -10.24686
H          4.46168        3.43245      -11.37923
H          4.55649        1.75005      -10.86592
H          4.52791        2.46009       -8.46179
H          4.36461        4.14582       -8.94685
H          6.58303        4.04006      -10.11819
H          6.75561        2.34745       -9.66089
H          6.75082        2.97541       -7.23736
H          6.50688        4.66881       -7.65835
H          8.70749        4.70251       -8.86620
H          8.95513        2.99932       -8.48606
H          8.94618        3.52034       -6.03743
H          8.65791        5.22432       -6.38345
H         10.85056        5.39832       -7.55944
H         11.14094        3.66661       -7.34228
H         11.12801        3.92147       -4.86602
H         10.84747        5.67108       -5.02081
H         12.82405        6.93137       -4.98921
H         12.76991        6.66994       -6.76664
H         15.01613        7.05285       -6.51257
H         13.93886        4.82762       -4.00941
H         15.57949        4.75676       -3.24797
H         19.44297        6.04962       -2.26542
H         20.61152        6.79245       -3.40485
H         20.98004        4.54265       -4.47295
H         19.83974        3.80897       -3.32768
H         21.32725        4.52542       -1.41194
H         22.47421        5.20691       -2.56382
H         21.68487        2.22395       -2.39792
H         23.21028        2.93186       -1.83534
H         22.83467        2.90485       -3.56792
H         16.81608        5.91547       -7.18904
H         18.38930        6.11845       -6.39562
H         17.54452        8.49340       -5.70464
H         19.22471        7.90569       -7.68456
H         18.46219        9.50358       -7.61167
H         17.79517        7.38300       -9.50472
H         17.84237        9.01173       -9.71284
H         16.06209        8.43632       -8.02508
