66

C          4.59271       -1.10895        1.28043
C          3.71022       -0.02019        0.71399
O          4.11984        0.19140       -0.68391
C          3.58627        1.24187       -1.31194
O          2.77155        2.01759       -0.86421
C          4.19845        1.34907       -2.75440
C          3.90062        0.06074       -3.54783
C          2.39400       -0.19747       -3.77710
C          1.92651        0.29872       -5.15424
S          0.13567        0.21904       -5.39969
C         -0.44188        1.77628       -4.75504
S          0.55895        2.97247       -4.09900
N         -1.77543        1.93587       -4.84410
C         -2.67041        0.93195       -5.45202
C         -3.26721       -0.04346       -4.43549
C         -2.44239        3.15285       -4.33854
C         -2.58895        4.23674       -5.40747
N          3.56824        2.53100       -3.37373
C          4.20268        3.65226       -3.19724
S          5.74228        3.56113       -2.48870
C          5.71818        1.69891       -2.62652
C          6.64730        1.25704       -3.76456
C          8.13355        1.48265       -3.46093
C          8.64237        0.52132       -2.37073
O          7.86365       -0.16805       -1.70929
N         10.00089        0.51564       -2.22343
C         10.81557       -0.24130       -1.34408
C         10.31361       -1.22794       -0.48020
C         11.20265       -1.93385        0.33321
C         12.57430       -1.67547        0.30213
C         13.06680       -0.68953       -0.55788
C         12.19476        0.02409       -1.37613
H          4.31968       -1.28600        2.32954
H          5.65129       -0.82032        1.24508
H          4.46862       -2.05193        0.73253
H          3.81770        0.93655        1.24316
H          2.64533       -0.29293        0.70994
H          4.35079       -0.76699       -2.98584
H          4.41617        0.10730       -4.51744
H          1.78692        0.27098       -2.98761
H          2.19863       -1.27580       -3.70646
H          2.33000       -0.33970       -5.95433
H          2.22952        1.33338       -5.36939
H         -2.11838        0.39728       -6.23758
H         -3.46610        1.49142       -5.96441
H         -2.48431       -0.62493       -3.93227
H         -3.93771       -0.74446       -4.94990
H         -3.85428        0.48183       -3.67058
H         -1.86070        3.52180       -3.48521
H         -3.42754        2.83672       -3.96657
H         -1.60658        4.57498       -5.76037
H         -3.11781        5.10015       -4.98285
H         -3.16774        3.88187       -6.27126
H          2.54085        2.52875       -3.68146
H          3.75014        4.60482       -3.47797
H          6.10268        1.29208       -1.68368
H          6.37546        1.75867       -4.70524
H          6.49780        0.17766       -3.90700
H          8.32775        2.52412       -3.15057
H          8.71455        1.33465       -4.38361
H         10.51906        1.13532       -2.84030
H          9.24790       -1.43492       -0.45505
H         10.80907       -2.70255        0.99913
H         13.25561       -2.23881        0.93935
H         14.13492       -0.47414       -0.59474
H         12.58523        0.79428       -2.04645
