77

C          1.95355        2.06839       -0.68245
C          2.86404        0.84074       -0.75885
C          3.81972        0.71901        0.43347
C          4.73605       -0.50609        0.35888
C          5.68965       -0.62995        1.55208
C          6.58393       -1.87334        1.47055
C          7.49964       -1.98535        2.68901
S          8.31697       -3.62985        2.63754
C          8.79346       -3.77947        4.28125
N          8.85682       -2.88344        5.24709
N          9.25406       -3.56428        6.38149
C          9.41211       -4.80835        6.03642
O          9.14620       -5.04044        4.71455
C          9.75848       -5.90665        6.94711
O         10.58884       -6.85156        6.37912
C         10.56811       -7.98680        7.25575
C          9.06992       -8.20558        7.48666
N          8.48007       -6.81084        7.46687
C          7.98613       -6.30713        8.81641
C          8.95186       -6.48017        9.98449
C          8.33561       -5.88028       11.27072
C          9.23808       -6.02392       12.40305
C         10.01692       -6.15378       13.31828
C          7.33085       -6.80167        6.46413
O          6.67049       -5.59962        6.61558
C          5.91163       -5.06339        5.56357
C          5.60800       -5.78815        4.41417
C          4.83689       -5.20216        3.39605
C          4.55331       -5.95244        2.12183
C          4.37331       -3.89847        3.59548
C          4.68766       -3.19239        4.75939
C          5.47257       -3.74389        5.77753
C          5.81716       -3.00318        7.06158
C          5.87595       -1.47968        6.89372
C          4.85077       -3.40453        8.19645
H          1.28537        2.12731       -1.55227
H          2.53884        2.99951       -0.64996
H          1.32271        2.04365        0.21899
H          3.45199        0.87478       -1.69148
H          2.24805       -0.07238       -0.82462
H          3.23347        0.68222        1.36902
H          4.43616        1.63264        0.50073
H          5.32323       -0.46778       -0.57501
H          4.11983       -1.42050        0.28981
H          5.10522       -0.66905        2.48818
H          6.31623        0.27545        1.62103
H          7.18281       -1.84513        0.54566
H          5.94990       -2.77257        1.40953
H          6.92955       -1.95049        3.62520
H          8.27284       -1.20709        2.70893
H         10.13821       -5.47246        7.88460
H         11.11093       -7.76906        8.18988
H         11.04809       -8.82291        6.73757
H          8.82538       -8.70675        8.42778
H          8.63250       -8.76792        6.65343
H          7.04227       -6.83808        9.01010
H          7.73793       -5.24987        8.65871
H          9.91015       -5.97303        9.80479
H          9.18082       -7.53878       10.17403
H          7.37533       -6.37435       11.49556
H          8.10753       -4.81291       11.11197
H         10.69249       -6.25803       14.14193
H          6.69540       -7.66874        6.72407
H          7.77461       -6.94378        5.46519
H          5.95292       -6.81563        4.28601
H          4.38786       -7.02251        2.30605
H          5.40217       -5.86815        1.42469
H          3.66746       -5.55403        1.61208
H          3.75431       -3.42388        2.83215
H          4.31114       -2.17586        4.87614
H          6.82797       -3.32673        7.35454
H          4.89120       -1.04538        6.66849
H          6.57824       -1.19168        6.10043
H          6.22379       -1.01713        7.82711
H          3.82242       -3.09584        7.96049
H          5.13970       -2.91831        9.13926
H          4.84146       -4.49136        8.35896
