33

C          1.82784        0.59215       -0.64771
O          2.86367        1.05927        0.26797
C          2.99407        0.37156        1.40240
O          2.35583       -0.59641        1.75214
C          4.12741        0.99722        2.24619
N          4.19159        0.32485        3.53078
N          3.50631        0.81436        4.59783
C          3.54641       -0.14830        5.48719
N          4.23628       -1.24195        5.02098
C          4.64360       -0.92437        3.75584
N          5.32188       -1.67034        2.83601
I          7.39756       -1.25253        2.64345
C          4.55296       -2.46046        5.78037
C          5.80706       -2.29070        6.63303
O          5.51062       -1.30939        7.62340
C          6.60523       -0.52657        8.07510
C          6.71944        0.77676        7.27932
F          5.59936        1.52953        7.38494
F          7.76633        1.50547        7.70869
F          6.90001        0.53290        5.93928
H          1.93138        1.22030       -1.53545
H          0.84141        0.72488       -0.18782
H          1.98860       -0.46470       -0.88908
H          3.93372        2.05924        2.43500
H          5.08637        0.90185        1.71941
H          3.10320       -0.09627        6.47565
H          5.24744       -2.67463        3.00306
H          4.66758       -3.29833        5.08036
H          3.68487       -2.67923        6.41565
H          6.66042       -1.99325        6.00305
H          6.04061       -3.26076        7.10656
H          7.56505       -1.06253        8.01594
H          6.41476       -0.26188        9.12409
