41

C          1.27843        0.43932        0.64880
C          2.41556        0.34858        0.24554
C          3.78278        0.14938       -0.22242
C          4.42150       -1.04461        0.49933
N          3.56203       -2.29479        0.40571
C          4.52090       -3.36536        0.89596
O          5.73178       -3.02521        0.29841
C          5.82489       -1.57376        0.05818
C          6.12223       -1.41951       -1.44794
C          5.14731       -2.12662       -2.39916
C          5.56767       -1.99054       -3.86633
S          4.31008       -2.77387       -4.89788
O          4.38992       -4.21070       -4.73504
O          3.07578       -2.05869       -4.68009
O          4.83378       -2.39181       -6.37795
C          6.93581       -0.92783        0.95512
C          7.02067       -1.52420        2.36987
O          5.75746       -1.46380        3.06026
C          8.35124       -1.00405        0.35881
H          0.27037        0.57584        0.98636
H          4.39460        1.03877        0.00012
H          3.79092        0.02962       -1.31615
H          4.45939       -0.82886        1.57472
H          3.27954       -2.47787       -0.56889
H          2.70849       -2.19182        0.97329
H          4.19699       -4.35757        0.55491
H          4.53090       -3.28788        1.99537
H          7.12366       -1.83457       -1.62208
H          6.19040       -0.34574       -1.68808
H          4.12602       -1.71703       -2.32537
H          5.10276       -3.19708       -2.14819
H          6.52240       -2.49139       -4.07601
H          5.62502       -0.94288       -4.19295
H          5.14726       -3.21234       -6.80694
H          6.66336        0.13856        1.05480
H          7.77808       -0.94936        2.92366
H          7.36561       -2.56998        2.30296
H          5.92661       -1.52445        4.01301
H          8.65191       -2.04258        0.16055
H          9.07386       -0.58187        1.06928
H          8.44684       -0.43015       -0.56942
