105

C          2.22328        0.85646       -1.73802
C          3.32694        0.11242       -0.98255
C          3.49780        0.58334        0.46611
C          4.61571       -0.14574        1.21861
C          4.76156        0.30361        2.67417
C          5.86411       -0.42671        3.44972
C          6.05501        0.17030        4.84425
C          6.98764       -0.63543        5.75937
N          6.99498       -0.08328        7.12571
C          6.04021       -0.37693        8.03019
S          5.88610        0.40027        9.52236
S          4.92909       -1.67452        7.48691
C          4.04762       -2.20194        8.99262
C          2.51395       -2.16542        8.89412
C          1.79914       -0.90331        9.40511
C          1.67598        0.31904        8.49629
N          2.94622        1.01665        8.29273
C          3.16413        1.79653        7.21744
N          4.00258        2.83472        7.29247
C          4.66081        3.52761        6.17476
C          6.12103        3.76219        6.55282
P          7.14419        4.62265        5.31400
O          6.67308        5.98189        4.97087
O          8.63402        4.50991        5.90919
C          9.18587        5.56732        6.75883
C         10.69099        5.40731        6.79631
O          7.18402        3.52744        4.14163
C          7.87270        3.86577        2.88896
C          7.43967        2.88495        1.82122
N          2.52846        1.44497        6.09161
C          1.88027        0.15141        6.10080
O          1.04264        0.00482        7.23489
C          1.01139        0.04546        4.82066
O          1.11662        0.92123        3.98107
C          0.11127       -1.14414        4.70716
C          8.05491        0.89905        7.41014
C          9.34325        0.27574        7.95314
C         10.43502        1.34422        8.07544
C         11.74776        0.82425        8.66662
C         12.85507        1.88302        8.68896
C         14.16723        1.38471        9.30210
C         15.28470        2.43372        9.29969
C         16.59323        1.92565        9.91028
H          2.12682        0.49209       -2.76968
H          2.42853        1.93622       -1.78575
H          1.24628        0.72826       -1.24853
H          4.28441        0.23130       -1.51745
H          3.11313       -0.96990       -0.98743
H          2.54468        0.45310        1.00917
H          3.70011        1.66945        0.47512
H          5.57412        0.01021        0.69307
H          4.43012       -1.23375        1.18800
H          3.79956        0.16102        3.19754
H          4.95625        1.38950        2.70277
H          6.81242       -0.37929        2.88824
H          5.61181       -1.49828        3.52851
H          5.07223        0.23931        5.33817
H          6.43805        1.19805        4.74901
H          8.02254       -0.61453        5.39137
H          6.68596       -1.69253        5.80136
H          4.43540       -1.57551        9.81188
H          4.38819       -3.23195        9.15897
H          2.14829       -2.99662        9.51539
H          2.17649       -2.40794        7.87447
H          2.24114       -0.57103       10.35956
H          0.76005       -1.17624        9.64041
H          0.97103        1.02163        8.97443
H          3.73445        0.87690        8.95817
H          4.33690        3.05259        8.22809
H          4.14890        4.47820        5.96316
H          4.58546        2.89206        5.28157
H          6.60237        2.80832        6.79114
H          6.18162        4.39631        7.45301
H          8.75073        5.45804        7.76605
H          8.88134        6.54038        6.34884
H         10.97948        4.42495        7.19310
H         11.12577        6.17967        7.44579
H         11.12274        5.52294        5.79352
H          8.95500        3.80978        3.07800
H          7.61242        4.89962        2.61950
H          7.67663        1.85155        2.10788
H          7.97140        3.10766        0.88609
H          6.36208        2.95891        1.62493
H          2.32322        2.05427        5.29661
H          2.66251       -0.63579        6.09135
H         -0.61489       -1.13423        5.53390
H          0.69155       -2.07362        4.81485
H         -0.40953       -1.13197        3.74516
H          7.66017        1.61441        8.14346
H          8.26429        1.43316        6.47065
H          9.68300       -0.53318        7.28560
H          9.13632       -0.18316        8.93255
H         10.06084        2.17752        8.69636
H         10.62756        1.77481        7.07690
H         12.09082       -0.04969        8.08587
H         11.56738        0.45528        9.69081
H         12.50370        2.76912        9.24750
H         13.04342        2.23089        7.65731
H         14.50820        0.48874        8.75389
H         13.98209        1.05083       10.33823
H         14.94370        3.32777        9.84917
H         15.46560        2.76761        8.26374
H         16.45176        1.61357       10.95570
H         17.37061        2.70154        9.89831
H         16.98188        1.05799        9.35680
