75

Br         1.71157        2.27437       -0.54047
C          3.52705        1.58323       -0.77649
C          3.49880        0.10893       -1.15144
C          4.94398       -0.44351       -1.26236
C          4.98176       -1.85670       -1.76416
C          5.07395       -2.13764       -3.13172
C          5.08241       -3.44225       -3.60064
C          4.99890       -4.52404       -2.70354
C          4.90051       -4.20155       -1.35854
N          4.88664       -2.91492       -0.90798
C          4.80710       -2.71754        0.56581
C          6.19706       -2.62521        1.20359
C          6.13128       -2.26249        2.69192
S          5.41331       -0.63064        3.04083
C          3.78066       -1.05307        3.71998
S          3.14198       -2.59543        3.64530
N          3.15909        0.00259        4.28235
C          3.74220        1.34973        4.38523
C          3.35888        2.27226        3.22155
C          3.88988        3.69686        3.40991
C          3.54682        4.62467        2.24222
C          1.82370       -0.15378        4.89001
C          1.89783       -0.52568        6.37561
C          0.50978       -0.68075        7.00655
C          0.57640       -1.04010        8.49310
C          5.01484       -5.94880       -3.20022
C          5.11900       -7.05497       -2.13594
C          5.19676       -8.42577       -2.77258
C          4.03210       -9.16459       -3.02356
C          4.10126      -10.41221       -3.64840
C          5.33900      -10.93643       -4.03016
C          6.50642      -10.20921       -3.78209
C          6.43405       -8.96202       -3.15763
H          4.04130        1.75768        0.17567
H          3.98573        2.20315       -1.55521
H          2.97346       -0.02545       -2.10826
H          2.93179       -0.45500       -0.39559
H          5.45054       -0.34600       -0.29254
H          5.51052        0.17006       -1.97752
H          5.14422       -1.29900       -3.82378
H          5.15871       -3.63423       -4.67248
H          4.82572       -4.95753       -0.57998
H          4.23098       -3.55305        0.97726
H          4.22700       -1.81033        0.76526
H          6.80740       -1.88562        0.66166
H          6.71626       -3.59222        1.10301
H          7.14467       -2.23763        3.11325
H          5.51868       -2.98520        3.25604
H          4.83504        1.26053        4.46865
H          3.39177        1.77552        5.33729
H          2.26315        2.29254        3.10846
H          3.75487        1.84415        2.28712
H          4.98327        3.66511        3.55031
H          3.47831        4.11416        4.34394
H          3.99606        4.27206        1.30209
H          3.91557        5.64292        2.42238
H          2.46122        4.68516        2.08181
H          1.28726       -0.92772        4.32603
H          1.29446        0.80161        4.75339
H          2.46813        0.24472        6.92174
H          2.46056       -1.46698        6.47544
H         -0.04961       -1.45983        6.46235
H         -0.06226        0.25351        6.87593
H          1.11306       -1.98701        8.65060
H         -0.42828       -1.15277        8.92160
H          1.09833       -0.26278        9.07026
H          5.85162       -6.05050       -3.91058
H          4.10618       -6.11168       -3.80473
H          4.24611       -7.01724       -1.46418
H          6.01469       -6.88873       -1.51467
H          3.06147       -8.76575       -2.71882
H          3.18746      -10.97885       -3.83072
H          5.39550      -11.91280       -4.51208
H          7.47636      -10.61680       -4.06901
H          7.35215       -8.40362       -2.95825
