61

C          2.59822       -1.56000       -8.84003
C          3.24041       -0.18885       -9.06129
C          4.12359        0.26135       -7.89271
C          4.75822        1.63966       -8.10573
C          5.63098        2.08701       -6.92684
C          6.21410        3.47385       -7.15057
O          6.92728        3.94359       -5.95750
C          8.23546        3.66636       -5.88439
O          8.89660        3.09940       -6.73531
C          8.81012        4.16044       -4.56189
C         10.33151        4.06875       -4.57715
N         10.93496        4.48108       -3.29636
C         12.04968        5.19145       -3.48408
N         12.89344        5.59962       -2.51965
C         12.49624        5.73905       -1.12892
C         11.41577        6.84721       -0.95589
O         10.83924        7.30361       -1.94067
N         11.18325        7.21220        0.32375
C         10.12157        8.15099        0.70811
C          8.81789        7.45394        1.11681
C          8.92869        6.58298        2.37387
C          7.60740        5.91122        2.75644
N         12.28059        5.36590       -4.80183
C         11.06258        5.02111       -5.58569
C         10.31144        6.26610       -5.97253
C          9.91030        6.50484       -7.22361
H          1.97011       -1.85102       -9.69276
H          1.96111       -1.56290       -7.94314
H          3.35987       -2.34247       -8.70639
H          2.45238        0.56449       -9.22994
H          3.84282       -0.20711       -9.98509
H          4.91891       -0.48613       -7.72589
H          3.52310        0.27615       -6.96612
H          3.96073        2.38392       -8.27489
H          5.36298        1.62533       -9.02857
H          6.45125        1.36758       -6.77439
H          5.03262        2.09809       -6.00155
H          5.42742        4.22490       -7.29717
H          6.90807        3.49533       -8.00119
H          8.40058        3.52290       -3.76156
H          8.46054        5.18237       -4.36355
H         10.62884        3.03338       -4.80461
H         10.61299        4.15750       -2.39361
H         13.63025        6.22527       -2.83095
H         13.39923        5.96093       -0.54552
H         12.11425        4.77851       -0.74746
H         11.71518        6.76454        1.06348
H          9.95426        8.80657       -0.15542
H         10.50919        8.76805        1.53191
H          8.45580        6.85224        0.26625
H          8.06127        8.23868        1.27902
H          9.28492        7.20300        3.21410
H          9.69536        5.80259        2.22372
H          6.82378        6.65688        2.95281
H          7.71727        5.29936        3.66128
H          7.24395        5.25472        1.95198
H         12.87212        6.12699       -5.12325
H         11.33993        4.44982       -6.47896
H         10.10565        6.98219       -5.16954
H         10.10548        5.79475       -8.03015
H          9.36406        7.41139       -7.48316
