76

C          1.57178        1.25758       -0.66032
C          3.07054        1.06819       -0.41225
C          3.37515        0.03458        0.67777
C          4.87129       -0.17379        0.93444
C          5.15900       -1.23958        1.99695
C          6.65136       -1.47055        2.25388
C          6.91803       -2.58863        3.26844
C          8.41158       -2.81907        3.53304
C          8.65048       -3.99850        4.45667
O         10.07994       -4.09929        4.71371
C         10.54547       -5.33536        5.10724
N         11.94491       -5.46436        4.52218
C         12.67769       -6.68773        5.03638
C         14.14190       -6.64002        4.61596
C         14.32214       -6.52443        3.08845
C         13.48552       -5.33423        2.57504
C         12.00901       -5.30927        2.99573
C         11.07690       -6.32158        2.30385
O         11.40424       -6.30511        0.93868
C         10.62858       -7.24213        0.16962
C         11.11857       -7.20659       -1.26251
C         14.07768       -7.84175        2.32459
C         15.10690       -8.93986        2.60948
C         14.88617      -10.19033        1.75240
C         15.83452      -11.34045        2.09948
C         15.62158      -12.57722        1.22458
N         16.48343      -13.67688        1.66846
H          1.38458        1.99581       -1.45186
H          1.05721        1.60654        0.24722
H          1.09555        0.31441       -0.96713
H          3.52459        2.03448       -0.13481
H          3.56412        0.76133       -1.35003
H          2.91654       -0.93088        0.39918
H          2.88269        0.34047        1.61767
H          5.32878        0.78350        1.23990
H          5.36774       -0.45814       -0.01014
H          4.69284       -2.19200        1.68823
H          4.66590       -0.95603        2.94307
H          7.11506       -0.53383        2.60850
H          7.15360       -1.71644        1.30180
H          6.45846       -3.52321        2.90163
H          6.40949       -2.35170        4.21831
H          8.85932       -1.91770        3.98074
H          8.93956       -2.99832        2.58152
H          8.30642       -4.94266        3.99616
H          8.12677       -3.87398        5.41904
H          9.93927       -6.17772        4.73410
H         10.67025       -5.42951        6.20178
H         12.45386       -4.64257        4.88333
H         12.15560       -7.56741        4.64002
H         12.56537       -6.68646        6.12878
H         14.63514       -7.53893        5.01008
H         14.62924       -5.78555        5.11607
H         15.37657       -6.25410        2.91476
H         13.50507       -5.28810        1.47893
H         13.94374       -4.39576        2.93195
H         11.60663       -4.30482        2.81205
H         10.02035       -6.02215        2.45475
H         11.19002       -7.34302        2.72039
H          9.55788       -6.97189        0.23619
H         10.74909       -8.25148        0.60792
H         11.00583       -6.20245       -1.69154
H         10.53583       -7.90758       -1.87445
H         12.17586       -7.49644       -1.32304
H         14.07885       -7.61174        1.24734
H         13.07102       -8.24391        2.53115
H         15.07376       -9.23163        3.67370
H         16.12340       -8.54660        2.43523
H         14.99511       -9.92286        0.68698
H         13.84269      -10.53314        1.87306
H         15.70736      -11.63548        3.15388
H         16.88072      -10.99995        1.99978
H         15.75679      -12.29478        0.15963
H         14.57715      -12.91503        1.32618
H         17.46374      -13.47237        1.46706
H         16.25995      -14.53627        1.16649
