55

C          1.94759        1.29235       -0.40902
C          3.32911        0.92603        0.12300
S          3.43932       -0.91105        0.19967
C          5.02213       -1.06907        0.84185
N          5.84820       -0.17418        1.33999
N          7.01257       -0.85216        1.68102
C          6.80098       -2.08685        1.37487
O          5.57922       -2.35047        0.84700
N          7.71474       -3.19128        1.49859
C          8.48019       -3.17491        2.84229
C          9.67930       -2.22745        2.79952
N         10.55573       -2.46842        1.66534
C          9.86202       -2.42847        0.39862
C          8.66526       -3.40794        0.24898
C          7.86392       -3.27419       -1.07570
C          7.68933       -1.87417       -1.68199
C          6.79279       -1.94098       -2.92589
C          6.03678       -0.63178       -3.15400
O          5.77400        0.15266       -2.27111
O          5.60334       -0.40176       -4.41814
C          8.94833       -4.92138        0.33490
O          8.21367       -5.65586        0.96348
C         10.19965       -5.52768       -0.38390
C         10.04771       -6.97635       -0.98645
C          8.96619       -7.19104       -2.11058
C          9.22469       -6.40308       -3.43816
O          8.88856       -5.24859       -3.54028
O          9.82223       -7.08738       -4.41284
F          8.95617       -8.53580       -2.37054
F          7.74499       -6.83833       -1.63121
F         11.25607       -7.29159       -1.53441
F          9.78893       -7.83771        0.01997
F         10.68056       -4.71330       -1.35955
F         11.15003       -5.59781        0.60357
H          1.87584        2.38623       -0.47070
H          1.14378        0.94069        0.25122
H          1.77780        0.89072       -1.41688
H          3.50016        1.31014        1.13561
H          4.13679        1.25862       -0.54028
H          7.17373       -4.08218        1.50996
H          8.78995       -4.21513        3.00240
H          7.73869       -2.89512        3.60084
H         10.23992       -2.35621        3.73509
H          9.32919       -1.18550        2.76811
H         11.14167       -3.29476        1.77907
H         10.56370       -2.60107       -0.42476
H          9.45656       -1.41373        0.26035
H          6.87894       -3.74729       -0.92600
H          8.36426       -3.91220       -1.82119
H          8.66362       -1.45000       -1.96130
H          7.23141       -1.16333       -0.98254
H          6.01127       -2.71115       -2.79716
H          7.36581       -2.23720       -3.81761
H          5.91210       -1.10013       -5.02290
H          9.95781       -8.02114       -4.15502
