81

C          2.33540        0.33130       -0.49612
C          3.65704        1.08910       -0.35141
C          3.81193        1.75367        1.02169
C          5.14649        2.49447        1.18697
C          5.26585        3.10577        2.56715
O          6.55925        3.78289        2.67144
C          6.77295        4.38920        3.88745
N          8.18484        4.10327        4.31511
C          8.87577        2.93836        4.32301
C          8.40601        1.62013        3.81884
C          9.48077        0.54175        4.02680
C          9.29114       -0.74595        3.21590
C          8.48427       -1.93544        3.87004
C          6.96217       -1.77597        4.25826
C          5.84944       -1.45044        3.18423
C          5.58680       -2.37706        1.92988
C          5.15767       -3.89045        2.09075
C          3.83245       -4.29385        2.85728
C          2.45663       -3.70406        2.36718
F          2.31295       -3.84978        1.03968
F          1.46863       -4.36331        2.99036
F          2.35465       -2.39507        2.67580
F          3.75089       -5.64157        2.73613
F          3.97420       -3.98438        4.17187
F          5.05773       -4.36258        0.82311
F          6.16969       -4.54570        2.71433
F          4.61251       -1.74784        1.21702
F          6.71610       -2.37892        1.18055
F          4.69114       -1.32767        3.87732
F          6.14419       -0.21709        2.66582
F          6.60123       -2.90272        4.90552
F          6.89065       -0.73523        5.15798
F          8.60002       -3.01579        3.06510
F          9.11038       -2.21070        5.05296
F          8.76328       -0.47628        1.97958
F         10.53545       -1.27975        3.00894
N         10.09066        3.17140        4.85891
N         10.16752        4.44606        5.17519
N          9.02549        5.01802        4.86317
C          8.87219        6.47001        4.89686
C          9.17017        7.04929        3.48965
O          9.00493        6.40069        2.47878
O          9.61397        8.28995        3.61494
C         10.02247        8.98383        2.36733
C         10.75372       10.24902        2.76508
C         11.35632       10.95884        1.54300
C         12.04144       12.28243        1.90413
C         12.73990       12.94919        0.71355
C         13.40422       14.28105        1.07084
H          2.25467       -0.14277       -1.48308
H          1.47294        1.00400       -0.38002
H          2.24185       -0.46073        0.26139
H          3.73333        1.85808       -1.13772
H          4.50107        0.39980       -0.51673
H          3.71622        0.98516        1.80723
H          2.97706        2.45768        1.18085
H          5.23716        3.29102        0.43220
H          5.98510        1.80045        1.01997
H          5.20706        2.33529        3.35715
H          4.46506        3.84448        2.74014
H          6.12146        3.99816        4.69029
H          6.68636        5.48634        3.83602
H          8.16730        1.73663        2.75092
H          7.45992        1.36086        4.31548
H          9.59362        0.28121        5.08690
H         10.45294        0.93113        3.69633
H          9.60010        6.82328        5.63571
H          7.86544        6.74366        5.23641
H          9.11031        9.17996        1.78610
H         10.65544        8.28658        1.80113
H         11.55609        9.99167        3.47478
H         10.06197       10.92364        3.29382
H         10.56845       11.14846        0.79381
H         12.08670       10.28916        1.05709
H         12.77877       12.10590        2.70689
H         11.29319       12.97538        2.32691
H         12.00838       13.10718       -0.09715
H         13.49679       12.25744        0.30652
H         12.66737       15.01149        1.43656
H         13.90414       14.72432        0.19941
H         14.16218       14.15289        1.85797
