88

C          0.72589        1.92878       -0.33304
C          2.24562        2.05194       -0.45533
C          2.80661        1.40280       -1.72449
C          4.32959        1.50861       -1.84098
C          4.90168        0.83288       -3.09081
C          6.42852        0.91446       -3.18152
C          7.01457        0.13866       -4.36494
C          8.54483        0.18546       -4.42564
C          9.13756       -0.71176       -5.51685
C         10.66919       -0.71422       -5.53182
C         11.25188       -1.73693       -6.51927
C         12.79030       -1.80200       -6.52254
N         13.32427       -3.05819       -5.80440
C         12.94265       -3.15239       -4.34186
C         13.83971       -4.11991       -3.56557
C         15.35138       -3.91134       -3.76697
C         15.86590       -2.49161       -3.49516
C         17.37691       -2.34600       -3.70776
C         17.87718       -0.90845       -3.53473
C         19.37592       -0.74434       -3.80445
C         19.85768        0.70461       -3.68727
C         21.35080        0.88100       -3.98023
C         21.81419        2.33533       -3.87730
C         13.02369       -4.30775       -6.59772
C         13.57056       -4.15504       -8.01476
O         13.08373       -2.97606       -8.63892
C         13.47732       -1.81441       -7.90366
C         13.19304       -0.57203       -8.73586
C         13.97249       -0.51322      -10.04731
C         13.71484        0.73405      -10.86845
Br        11.84958        0.75980      -11.51094
Br        15.93650       -0.50699       -9.68223
H          0.35466        2.41002        0.58190
H          0.41335        0.87449       -0.30473
H          0.21786        2.40055       -1.18700
H          2.72538        1.59406        0.42617
H          2.53301        3.11671       -0.43699
H          2.33654        1.86564       -2.60982
H          2.51249        0.33849       -1.74800
H          4.79280        1.05961       -0.94448
H          4.62383        2.57282       -1.83221
H          4.45440        1.28495       -3.99303
H          4.59505       -0.22815       -3.09978
H          6.86600        0.52375       -2.24558
H          6.73807        1.97218       -3.24220
H          6.59638        0.52847       -5.30890
H          6.68799       -0.91430       -4.30035
H          8.95247       -0.12553       -3.44694
H          8.87838        1.22642       -4.57725
H          8.75954       -0.40121       -6.50556
H          8.77611       -1.74438       -5.36503
H         11.03523       -0.92619       -4.51254
H         11.04267        0.29253       -5.78420
H         10.90888       -1.50750       -7.53816
H         10.82151       -2.72705       -6.30339
H         13.20555       -0.96427       -5.93937
H         14.35244       -2.95329       -5.81069
H         11.88631       -3.44396       -4.29651
H         13.03455       -2.13194       -3.94899
H         13.57075       -5.16223       -3.79376
H         13.58362       -3.97492       -2.50464
H         15.65008       -4.22226       -4.78767
H         15.87678       -4.61978       -3.10899
H         15.60357       -2.19909       -2.46446
H         15.35565       -1.75434       -4.14580
H         17.63779       -2.70088       -4.72090
H         17.90773       -3.01318       -3.00817
H         17.64678       -0.55948       -2.51350
H         17.31447       -0.24501       -4.21635
H         19.60679       -1.12338       -4.81562
H         19.94602       -1.37940       -3.10481
H         19.63781        1.08330       -2.67377
H         19.27570        1.33847       -4.37990
H         21.56949        0.49364       -4.98977
H         21.93336        0.25632       -3.28279
H         21.27153        2.97759       -4.58686
H         22.88631        2.43241       -4.09417
H         21.64128        2.73747       -2.86808
H         11.93553       -4.44078       -6.59680
H         13.48911       -5.15714       -6.08276
H         13.24441       -5.00734       -8.62460
H         14.67901       -4.14721       -7.99810
H         14.57639       -1.86084       -7.73375
H         13.41943        0.32299       -8.13490
H         12.12430       -0.53210       -8.99929
H         13.81793       -1.41920      -10.64333
H         14.33342        0.75827      -11.76896
H         13.85539        1.65258      -10.28890
