70

C          1.63283        1.57147       -1.22356
C          3.10019        1.17746       -1.41352
C          4.02516        2.39197       -1.57786
C          5.48449        1.97427       -1.77280
S          6.50540        3.48712       -1.94382
C          8.09006        2.82405       -2.17629
N          9.20950        3.48836       -2.25238
N         10.21776        2.54757       -2.47464
C          9.65723        1.38403       -2.52014
O          8.27793        1.45816       -2.33503
C         10.27553        0.04449       -2.76680
C         10.08876       -0.46279       -4.21404
C          8.65273       -0.93394       -4.48783
C          8.51210       -1.60143       -5.86981
C          8.68751       -0.61826       -7.03620
C          9.00898       -1.34651       -8.34802
S          9.81376       -0.29028       -9.57901
C         11.50559       -0.24667       -8.96883
S         12.00196       -1.07384       -7.59689
N         12.32593        0.51314       -9.72718
C         11.89073        1.20350      -10.95279
C         11.46475        2.65442      -10.71224
C         13.74021        0.69932       -9.35608
C         14.66400       -0.34333       -9.98658
C          8.18912       -1.93431       -3.42105
N          8.33161       -1.36666       -2.02418
C          9.78448       -1.01038       -1.76755
N          7.86147       -2.26360       -0.93451
C          7.56247       -1.43243        0.24355
C          6.67228       -3.03922       -1.31769
H          0.99641        0.68483       -1.10597
H          1.25747        2.13869       -2.08724
H          1.49957        2.19838       -0.33037
H          3.19531        0.52541       -2.29869
H          3.43668        0.57948       -0.54881
H          3.94280        3.04232       -0.69217
H          3.69711        2.99390       -2.44066
H          5.59706        1.36395       -2.68079
H          5.84459        1.40562       -0.90223
H         11.34966        0.18608       -2.57722
H         10.78526       -1.29956       -4.38532
H         10.38407        0.32503       -4.91669
H          7.97134       -0.06470       -4.45309
H          7.53337       -2.10469       -5.94331
H          9.28010       -2.38911       -5.95255
H          9.52717        0.05403       -6.81917
H          7.79016        0.00830       -7.15522
H          8.10710       -1.71902       -8.85549
H          9.68989       -2.19066       -8.16540
H         11.07642        0.62557      -11.41205
H         12.73215        1.16111      -11.66023
H         10.61343        2.70696      -10.02143
H         11.16607        3.11755      -11.66245
H         12.28799        3.24926      -10.29360
H         13.80129        0.65520       -8.26133
H         14.02056        1.71380       -9.67580
H         14.40554       -1.35101       -9.63763
H         15.70421       -0.13656       -9.70024
H         14.60881       -0.32597      -11.08393
H          8.78147       -2.86081       -3.44232
H          7.13289       -2.17693       -3.57272
H          7.78774       -0.47811       -2.00157
H         10.33849       -1.95163       -1.86425
H          9.86436       -0.65553       -0.73605
H          8.44829       -0.88906        0.58915
H          7.26417       -2.11042        1.05029
H          6.73759       -0.71462        0.06444
H          6.90239       -3.75625       -2.11122
H          5.80094       -2.41750       -1.60183
H          6.39880       -3.61864       -0.42860
