59

C          4.49457        1.92161        3.52712
C          3.90989        1.70608        2.12967
C          4.72685        2.40743        1.03494
C          4.12532        2.16411       -0.34004
O          4.83196        2.92408       -1.38363
C          5.89374        2.33560       -1.94840
O          6.31563        1.22405       -1.67670
C          6.51858        3.22172       -2.99691
C          6.01807        4.50748       -3.24358
C          6.57968        5.35405       -4.21340
C          7.65157        4.84235       -4.93711
N          8.12026        3.60666       -4.69292
C          7.62058        2.77416       -3.75609
C          8.30062        1.43043       -3.61258
C          9.49336        1.16364       -4.53897
O          9.85206        2.00759       -5.41067
N         10.15415        0.00454       -4.41129
C         11.28939       -0.26569       -5.32930
C         12.58626        0.46591       -4.96299
C         13.16166        0.13594       -3.58168
C         14.47221        0.87817       -3.30726
C          9.78917       -1.06950       -3.48684
C          6.09254        6.75900       -4.44172
C          6.63391        7.71952       -3.35113
C          6.28403        9.18238       -3.68120
F          6.69121        9.51861       -4.92849
F          4.93289        9.36906       -3.61797
F          6.85534       10.03183       -2.80901
O          6.18087        7.37904       -2.05563
H          3.88836        1.41733        4.29073
H          4.53252        2.99024        3.78343
H          5.51753        1.52449        3.59701
H          2.87146        2.07518        2.10232
H          3.85880        0.62659        1.91280
H          5.76432        2.03847        1.05162
H          4.76060        3.49112        1.23069
H          3.09587        2.53804       -0.40475
H          4.15151        1.10128       -0.61412
H          5.16787        4.84996       -2.65616
H          8.15780        5.40050       -5.72596
H          8.97261        3.10578       -5.21866
H          7.54227        0.64391       -3.74449
H          8.60537        1.31723       -2.56203
H         10.97463        0.02030       -6.34185
H         11.44053       -1.35390       -5.31347
H         12.42446        1.55050       -5.05395
H         13.32304        0.20196       -5.73932
H         13.32989       -0.95138       -3.50071
H         12.42900        0.39749       -2.79927
H         15.24080        0.61369       -4.04734
H         14.86884        0.63562       -2.31284
H         14.32835        1.96761       -3.35340
H          9.03296       -0.74877       -2.76587
H         10.68004       -1.39103       -2.93282
H          9.39745       -1.93115       -4.04790
H          4.99287        6.78934       -4.42316
H          6.41516        7.11501       -5.42976
H          7.73331        7.66491       -3.31804
H          5.26761        7.69989       -1.94972
