70

C          1.38371       -0.38471        0.75290
C          2.88998       -0.11706        0.75188
C          3.22012        1.31798        1.17404
C          4.69304        1.61450        1.24499
O          5.58515        0.77381        1.26760
O          4.94056        2.94914        1.30379
C          6.32963        3.33611        1.37362
C          6.88674        3.13002        2.80044
N          8.32635        2.91341        2.80252
C          9.31330        3.87483        3.30381
C         10.68113        3.24364        2.91399
N         10.25961        1.83791        2.65561
C          8.92572        1.76427        2.45371
N          8.27746        0.68719        2.01862
C         11.70508        3.31364        4.05889
C         11.39734        2.38533        5.23337
O         12.17375        2.82961        6.33080
C         12.19583        1.91920        7.40658
C         13.23453        2.36503        8.43597
C         14.75604        2.17960        8.08357
C         15.44009        2.96474        6.90210
C         15.42844        4.52212        6.99186
F         16.33504        4.99902        6.09321
F         14.20062        5.00141        6.64412
F         16.74625        2.57577        6.92719
F         14.91102        2.56201        5.71158
F         15.45983        2.50298        9.20647
F         14.94139        0.85207        7.82149
F         13.03406        3.66648        8.79974
F         13.03190        1.58815        9.54808
C         11.26957        3.87986        1.61689
C         10.31645        3.94685        0.44675
C          9.56835        5.10694        0.18821
C          8.64040        5.15032       -0.85298
C          8.42314        4.03733       -1.68090
C          9.18867        2.88602       -1.43833
C         10.12269        2.84527       -0.40231
C          7.44274        4.09452       -2.82293
H          1.17017       -1.41427        0.43900
H          0.85083        0.28875        0.06635
H          0.95158       -0.24784        1.75502
H          3.30508       -0.30154       -0.25117
H          3.40090       -0.81985        1.42628
H          2.81184        1.53011        2.17938
H          2.74936        2.06216        0.51334
H          6.34744        4.39065        1.08086
H          6.91371        2.76429        0.64035
H          6.38901        2.26935        3.27220
H          6.67989        4.00244        3.43155
H          9.21074        3.99109        4.39430
H          9.17118        4.85464        2.82981
H         10.88498        1.20309        2.16957
H          8.80001       -0.13858        1.75515
H          7.27319        0.72407        1.75813
H         11.74622        4.34889        4.43113
H         12.71189        3.08900        3.67686
H         11.65099        1.33850        4.97984
H         10.31936        2.39802        5.49714
H         12.45137        0.89555        7.07713
H         11.22776        1.88350        7.94099
H         15.69225        4.87769        7.99981
H         12.17011        3.30544        1.34577
H         11.61960        4.88926        1.88133
H          9.73155        6.00154        0.79418
H          8.08463        6.07231       -1.03661
H          9.06538        2.01438       -2.08425
H         10.72862        1.94488       -0.27389
H          7.91568        4.52399       -3.71954
H          6.57709        4.72579       -2.58255
H          7.07867        3.09547       -3.09475
