45

C          4.92116       -2.10297       -0.01801
C          4.18159       -2.96494       -1.04099
N          2.75350       -2.61839       -1.15278
C          1.83415       -3.25624       -0.39192
S          2.17070       -4.44244        0.72627
S          0.14769       -2.69209       -0.71111
C         -0.78702       -3.74866        0.42882
C         -2.28067       -3.46497        0.24233
C         -3.09306       -4.41445        1.12773
N         -4.53877       -4.16795        1.01054
C         -5.36653       -3.72449        1.93262
N         -6.60129       -3.64463        1.35596
C         -6.44959       -4.07074        0.02403
N         -5.16654       -4.40584       -0.17512
N         -7.37743       -4.08347       -0.94790
C         -8.81388       -4.28611       -0.71414
C         -6.90583       -4.42734       -2.29642
N         -7.76884       -3.15727        1.94971
C          2.42009       -1.57408       -2.13223
C          2.22327       -2.11173       -3.55274
H          5.98266       -2.38402        0.00435
H          4.50587       -2.25322        0.98641
H          4.86248       -1.03403       -0.26642
H          4.24177       -4.02551       -0.76692
H          4.61857       -2.84435       -2.04322
H         -0.45429       -3.54475        1.45623
H         -0.53802       -4.79599        0.20628
H         -2.57575       -3.61118       -0.80674
H         -2.51532       -2.42266        0.50992
H         -2.83964       -4.30014        2.19049
H         -2.92914       -5.46295        0.84271
H         -5.13746       -3.47518        2.96301
H         -9.09961       -3.93055        0.27691
H         -9.07087       -5.35280       -0.81631
H         -9.37080       -3.71634       -1.46815
H         -5.92608       -3.97446       -2.47729
H         -7.63017       -4.02844       -3.01588
H         -6.82555       -5.51732       -2.43278
H         -7.98372       -3.69067        2.79375
H         -7.66310       -2.16541        2.17089
H          3.23875       -0.83974       -2.10919
H          1.52351       -1.03855       -1.78706
H          3.12592       -2.62082       -3.91637
H          2.00667       -1.28196       -4.23932
H          1.38743       -2.82185       -3.59499
