59

C          5.56139        6.33697       -2.08932
C          4.81313        5.06326       -2.48646
C          5.19366        3.82132       -1.67832
S          4.80113        3.98744        0.10447
C          3.00534        3.69262        0.14513
C          2.41682        4.01682        1.52538
C          2.26355        5.52688        1.79177
N          1.39565        5.67366        2.96232
O          1.14884        3.39669        1.54015
C          5.46100        2.42226        0.79958
C          6.93254        2.51883        1.18391
C          7.26678        3.53637        2.28459
S          6.19204        3.48903        3.74752
C          6.88200        2.07850        4.65955
S          8.23354        1.26121        4.17008
N          6.15103        1.79801        5.77826
C          5.07958        2.65102        6.24276
C          3.76261        2.17227        6.22650
C          2.73026        2.97729        6.71226
C          3.00951        4.25310        7.21607
C          4.32639        4.72334        7.23777
C          5.36587        3.92320        6.75640
C          6.43242        0.62776        6.58643
C          6.83561        0.79674        7.91390
C          7.07610       -0.32699        8.70841
C          6.91070       -1.60934        8.17962
C          6.49834       -1.76866        6.85245
C          6.25636       -0.65250        6.05165
H          5.28587        7.16448       -2.75398
H          6.64967        6.20051       -2.16181
H          5.32799        6.65233       -1.06218
H          5.03407        4.81039       -3.53538
H          3.72409        5.22066       -2.44833
H          6.28187        3.65589       -1.69053
H          4.69132        2.90939       -2.03123
H          2.82881        2.63786       -0.10876
H          2.56430        4.32967       -0.63509
H          3.06998        3.58550        2.31609
H          1.75068        5.98231        0.93059
H          3.25502        6.00623        1.89286
H          1.91750        5.60021        3.83622
H          0.90958        6.56805        2.96575
H          0.64462        3.92600        2.20327
H          5.25725        1.63386        0.06179
H          4.84345        2.25853        1.69551
H          7.56251        2.72114        0.30217
H          7.22313        1.51919        1.54592
H          7.18268        4.57530        1.93083
H          8.29715        3.36431        2.62929
H          3.55717        1.16939        5.84986
H          1.70622        2.60160        6.70874
H          2.20260        4.87186        7.61114
H          4.55082        5.70825        7.64920
H          6.39801        4.27449        6.78220
H          6.96487        1.80013        8.32093
H          7.39768       -0.19616        9.74197
H          7.10152       -2.48521        8.80009
H          6.36472       -2.76829        6.43745
H          5.94738       -0.76953        5.01307
