34

C          3.71925       -0.19324       -0.85500
C          2.46424        0.11197       -0.05335
N          2.68693        1.22669        0.95662
C          2.82453        2.59555        0.32519
C          3.24403        3.61171        1.39746
N          2.41457        3.58933        2.59056
C          2.28231        2.25929        3.14081
C          1.69203        1.22438        2.14033
C          0.23546        1.49587        1.74129
C         -0.49887        0.34573        1.10505
C         -1.25468        0.44267        0.00833
N          1.43662        2.34198        4.35321
O          1.33485        0.96598        4.77998
O          2.25621        3.00798        5.30851
H          3.51420       -1.05380       -1.50438
H          4.56233       -0.47174       -0.20533
H          4.02868        0.63440       -1.50514
H          2.14852       -0.76194        0.53110
H          1.61916        0.41385       -0.68173
H          3.60117        1.02499        1.39387
H          1.85480        2.83779       -0.12597
H          3.57443        2.51875       -0.47157
H          3.22958        4.61794        0.95903
H          4.28923        3.41264        1.69513
H          1.50335        4.02783        2.44970
H          3.29523        1.91186        3.43941
H          1.78204        0.21800        2.57045
H          0.14103        2.39863        1.12014
H         -0.26170        1.74363        2.69499
H         -0.43996       -0.61114        1.63581
H         -1.36404        1.38465       -0.53506
H         -1.81295       -0.41086       -0.37513
H          0.55962        0.97485        5.36894
H          1.63625        3.61004        5.75699
