136

C          5.70366        2.43632       -1.79258
C          6.28454        2.35282       -0.37878
C          6.30170        0.92866        0.18799
C          6.90229        0.83122        1.59453
C          6.90380       -0.59326        2.15840
C          7.53295       -0.70894        3.55144
C          7.52259       -2.14284        4.08986
C          8.19461       -2.26896        5.46368
N          8.23861       -3.65702        5.94676
C          7.29021       -4.21022        6.73233
S          7.25434       -5.81174        7.19594
S          6.04541       -3.00610        7.27648
C          4.97430       -4.02432        8.31712
C          3.72000       -4.51839        7.59160
C          2.83750       -5.37389        8.51900
C          1.40380       -5.76781        8.08345
C          1.30734       -6.73066        6.87401
C          1.42965       -6.05726        5.49721
C          0.47702       -4.86971        5.31637
N          0.64992       -3.95163        6.52658
C          0.41742       -4.59783        7.89291
C          0.43244       -3.48543        8.94435
C         -0.07151       -3.95398       10.31260
C         -0.10119       -2.80659       11.34939
N          1.17546       -2.28611       11.80621
O         -1.37925       -4.48864       10.07710
C         -1.01054       -5.19237        5.12526
C         -1.36596       -5.53110        3.67018
C         -2.88058       -5.64987        3.46038
C         -3.29327       -5.81503        1.99396
C         -4.81406       -5.82970        1.80438
C         -5.26110       -5.91315        0.34122
C         -6.78418       -5.88342        0.17815
C         -7.25947       -5.93944       -1.27740
C         -8.78530       -5.90390       -1.41188
C         -9.28548       -5.96070       -2.85953
C        -10.81283       -5.92747       -2.96463
C        -11.31483       -5.99130       -4.41404
N        -12.76656       -5.95903       -4.51930
C        -13.59841       -7.05157       -4.40152
C        -14.90752       -6.60514       -4.43350
C        -14.86778       -5.18924       -4.56677
C        -13.53555       -4.81873       -4.61216
C          9.40938       -4.44091        5.51472
C         10.58854       -4.29409        6.48391
C         11.82590       -5.07245        6.02650
C         13.03656       -4.85521        6.94126
C         14.28100       -5.64036        6.51555
C         15.50547       -5.36471        7.39400
C         16.75056       -6.16083        6.98809
C         17.97667       -5.84756        7.84916
H          5.69306        3.47038       -2.16273
H          4.66941        2.06216       -1.82431
H          6.29261        1.83675       -2.50233
H          5.70609        3.00476        0.29762
H          7.31153        2.75521       -0.37860
H          6.86842        0.27191       -0.49550
H          5.27111        0.53027        0.20102
H          6.34520        1.49545        2.27853
H          7.93662        1.21686        1.57519
H          7.44221       -1.26013        1.46223
H          5.86668       -0.97221        2.19496
H          6.99917       -0.04544        4.25424
H          8.57153       -0.33686        3.51428
H          8.03638       -2.80796        3.37620
H          6.48636       -2.51020        4.16516
H          7.68863       -1.63796        6.20901
H          9.23353       -1.90893        5.41584
H          4.71618       -3.39957        9.18540
H          5.59304       -4.87760        8.64756
H          4.03523       -5.08799        6.70542
H          3.19645       -3.61501        7.22162
H          2.76665       -4.86489        9.49426
H          3.38075       -6.30894        8.72592
H          0.99173       -6.32408        8.94082
H          0.34606       -7.26434        6.93384
H          2.08551       -7.50115        6.96399
H          1.21620       -6.78479        4.70185
H          2.46127       -5.71809        5.32360
H          0.81058       -4.25483        4.46521
H          0.00385       -3.15686        6.43306
H          1.60756       -3.56703        6.51794
H         -0.60346       -5.00130        7.84179
H         -0.23936       -2.67188        8.61517
H          1.44082       -3.05820        9.05736
H          0.60071       -4.74632       10.70108
H         -0.65193       -3.17818       12.23074
H         -0.70012       -1.97578       10.94257
H          1.77483       -3.00021       12.21767
H          1.69672       -1.78987       11.08660
H         -1.78207       -4.71248       10.93166
H         -1.60848       -4.31024        5.42012
H         -1.32675       -6.00953        5.79131
H         -0.86856       -6.46525        3.36182
H         -0.97032       -4.73888        3.01058
H         -3.36680       -4.74474        3.86559
H         -3.27159       -6.49363        4.05433
H         -2.85711       -6.74256        1.58525
H         -2.86138       -4.98936        1.40142
H         -5.24053       -4.91756        2.25843
H         -5.24533       -6.67533        2.36795
H         -4.85873       -6.83376       -0.11632
H         -4.81643       -5.07520       -0.22425
H         -7.18081       -4.96849        0.65296
H         -7.22652       -6.72668        0.73717
H         -6.86989       -6.85495       -1.75616
H         -6.82164       -5.09524       -1.83876
H         -9.17195       -4.98836       -0.93073
H         -9.21970       -6.74645       -0.84608
H         -8.90138       -6.87664       -3.34256
H         -8.85671       -5.11670       -3.42839
H        -11.20426       -5.00994       -2.49569
H        -11.24680       -6.77037       -2.40251
H        -10.95666       -6.91108       -4.90216
H        -10.91450       -5.14660       -4.99507
H        -13.18887       -8.05307       -4.31581
H        -15.79260       -7.23121       -4.38261
H        -15.71635       -4.51642       -4.63868
H        -13.06920       -3.84366       -4.71143
H          9.68696       -4.08530        4.51058
H          9.10085       -5.49097        5.43424
H         10.27096       -4.64282        7.47906
H         10.84484       -3.22625        6.59055
H         12.09173       -4.77400        4.99680
H         11.58518       -6.14825        5.97954
H         12.76658       -5.13108        7.97556
H         13.27793       -3.77786        6.97054
H         14.52468       -5.39761        5.46612
H         14.05401       -6.72080        6.52996
H         15.25881       -5.58850        8.44704
H         15.73869       -4.28536        7.36377
H         16.98240       -5.95640        5.92891
H         16.52527       -7.23921        7.04398
H         18.25054       -4.78397        7.78184
H         18.85059       -6.43471        7.53512
H         17.78962       -6.07257        8.90967
