56

N          2.87904       -4.47040       -0.41640
C          3.00929       -3.49243       -1.51939
C          3.25144       -2.07569       -0.99324
N          4.61497       -1.80842       -0.52459
N          5.31955       -0.74975       -1.06906
C          6.41260       -0.66587       -0.35339
N          6.43429       -1.63231        0.63457
C          5.29953       -2.36755        0.50618
N          4.92148       -3.43141        1.22009
C          5.47853       -3.80828        2.52265
C          6.84301       -4.48716        2.48546
O          7.81475       -3.49367        2.13156
C          7.46854        0.36715       -0.55361
C          8.88382       -0.11387       -0.23128
O          9.13253       -1.05994        0.49875
O          9.77909        0.68275       -0.81624
C         11.20093        0.42787       -0.53579
C         11.80267       -0.55092       -1.53098
C         13.31989       -0.67343       -1.33828
C         13.96181       -1.71202       -2.26337
C         15.48508       -1.78886       -2.12353
C         16.12369       -2.87063       -2.99930
C         17.65113       -2.92346       -2.89202
C         18.27658       -4.02293       -3.75277
H          2.96646       -5.42151       -0.77879
H          1.94481       -4.41151       -0.00488
H          2.11168       -3.45799       -2.15873
H          3.84954       -3.79502       -2.15961
H          2.54734       -1.84299       -0.17707
H          3.08832       -1.34512       -1.79366
H          7.26642       -1.94527        1.16400
H          4.12768       -3.97464        0.79412
H          4.75638       -4.49583        2.98191
H          5.53997       -2.91843        3.16974
H          6.84016       -5.31845        1.76010
H          7.05170       -4.89531        3.48911
H          8.69817       -3.88984        2.08060
H          7.27377        1.22819        0.11019
H          7.40847        0.75088       -1.57905
H         11.28881        0.06595        0.49704
H         11.65899        1.42141       -0.61958
H         11.58273       -0.20798       -2.55448
H         11.32712       -1.53674       -1.40679
H         13.54014       -0.93761       -0.28941
H         13.78897        0.31044       -1.51081
H         13.70348       -1.47856       -3.31079
H         13.52353       -2.70371       -2.05522
H         15.74684       -1.97434       -1.06703
H         15.92267       -0.80745       -2.37644
H         15.83955       -2.70411       -4.05338
H         15.70520       -3.85529       -2.72499
H         17.93602       -3.07241       -1.83674
H         18.06728       -1.94424       -3.18297
H         17.91140       -5.01736       -3.45548
H         19.37137       -4.03038       -3.66292
H         18.03086       -3.88432       -4.81609
