68

C         -0.53878        1.27667        1.87239
C          0.64228        2.21555        2.13978
C          2.00471        1.51316        2.24841
C          2.53167        0.87757        0.95373
N          2.82769        1.85708       -0.11448
C          1.99527        1.93994       -1.17456
O          0.93632        1.28295       -1.24400
C          2.40979        2.80281       -2.38394
N          1.34051        3.62260       -2.94546
C          0.34270        3.18233       -3.73408
N         -0.07622        1.91935       -3.61043
N         -0.23002        4.04455       -4.61492
C          0.54827        5.10805       -5.32290
C          0.52966        6.45500       -4.58354
O          1.09885        6.34949       -3.27043
C          1.96341        4.67586       -5.75369
C          2.01707        3.35290       -6.51994
C         -1.63630        3.86377       -5.00494
C         -2.61874        3.86610       -3.82164
O         -2.49766        5.03589       -2.96512
C         -2.84934        6.25951       -3.43345
O         -3.12052        6.51027       -4.59036
C         -2.88261        7.28025       -2.31219
S         -1.31341        7.49723       -1.39050
C         -4.05445        3.63924       -4.32051
O         -5.02195        3.84181       -3.27535
C         -5.07777        2.87584       -2.31178
O         -4.41617        1.85788       -2.33567
C         -6.03477        3.26926       -1.21218
S         -5.19188        4.35144        0.00691
C          4.07135        2.62245        0.01975
H         -1.48710        1.83173        1.87476
H         -0.61263        0.50076        2.64864
H         -0.45399        0.77831        0.89771
H          0.47068        2.75794        3.08218
H          0.68840        2.99017        1.35522
H          1.94485        0.70450        2.99526
H          2.75310        2.22180        2.63989
H          1.80843        0.16538        0.54162
H          3.46572        0.33218        1.15618
H          2.77620        2.09281       -3.14602
H          3.23720        3.48234       -2.15883
H          1.41833        4.65693       -2.90443
H          0.18880        1.43113       -2.71984
H         -0.66982        1.49249       -4.30915
H         -0.01769        5.26957       -6.25478
H         -0.50067        6.83110       -4.51923
H          1.11097        7.18102       -5.17583
H          0.43632        6.72433       -2.64100
H          2.65269        4.65336       -4.89809
H          2.32958        5.48764       -6.40029
H          1.76202        2.48948       -5.88913
H          3.02611        3.17692       -6.91355
H          1.32523        3.35464       -7.37495
H         -1.78330        2.92935       -5.57640
H         -1.88713        4.68471       -5.68459
H         -2.36965        3.05843       -3.12308
H         -3.67151        7.01125       -1.59583
H         -3.11150        8.25857       -2.74862
H         -1.38647        6.34242       -0.68702
H         -4.12708        2.61008       -4.70306
H         -4.33568        4.35281       -5.10175
H         -6.42049        2.37214       -0.71778
H         -6.86420        3.86840       -1.60528
H         -4.34364        3.40299        0.47134
H          4.41474        2.53724        1.05575
H          3.91845        3.68980       -0.18151
H          4.86669        2.23332       -0.63341
