107

C          3.92015        6.47082       -3.70335
C          5.07463        5.58660       -3.22618
C          5.58328        4.61325       -4.29563
C          6.75020        3.74200       -3.82160
C          7.25698        2.74864       -4.87236
C          8.42499        1.89168       -4.37523
C          8.94202        0.87289       -5.39645
C         10.09954        0.02763       -4.85625
C         10.62104       -1.03808       -5.82612
C         11.75121       -1.87602       -5.22035
C         12.26383       -3.01164       -6.11215
C         13.33744       -3.85202       -5.41467
C         13.86253       -5.04201       -6.22492
C         14.85217       -5.88620       -5.41300
C         15.38447       -7.14917       -6.10535
C         16.27761       -6.86269       -7.32314
C         17.22650       -7.99147       -7.78516
C         16.58586       -9.26215       -8.36108
C         16.03258      -10.18961       -7.28231
N         17.00359      -10.34743       -6.19645
C         17.93258       -9.42750       -5.86790
N         18.65396       -9.55749       -4.73552
C         19.76783       -8.64365       -4.43054
C         21.07763       -8.97886       -5.16322
C         22.23056       -8.01334       -4.82876
C         22.47029       -7.77591       -3.32695
C         22.66884       -9.05758       -2.50299
C         22.41291       -8.81266       -1.01749
O         22.31593      -10.05175       -0.27213
C         21.11495      -10.68844       -0.32950
O         20.16701      -10.28574       -0.99375
C         21.13482      -11.89752        0.52144
C         20.03425      -12.63538        0.71182
C         18.39796      -10.66005       -3.78759
C         19.11236      -11.98054       -4.10787
C         18.65010      -13.09856       -3.17000
C         19.32287      -14.44504       -3.45336
C         18.87546      -15.56304       -2.50576
N         19.26156      -15.26851       -1.11763
N         18.14701       -8.38828       -6.70261
H          3.57611        7.14878       -2.91007
H          3.05730        5.86573       -4.01982
H          4.21962        7.08992       -4.56226
H          4.75709        5.01301       -2.33869
H          5.91087        6.22235       -2.88879
H          5.89120        5.18275       -5.19049
H          4.75115        3.96533       -4.62375
H          6.44504        3.18672       -2.91686
H          7.58448        4.39318       -3.50549
H          7.56385        3.29806       -5.77977
H          6.42651        2.09097       -5.18442
H          8.11644        1.35741       -3.45900
H          9.25551        2.55267       -4.06994
H          9.26295        1.39828       -6.31302
H          8.11443        0.20877       -5.70239
H          9.77657       -0.46725       -3.92302
H         10.93148        0.69415       -4.56754
H         10.97048       -0.55691       -6.75627
H          9.78996       -1.70245       -6.12150
H         11.40126       -2.30643       -4.26510
H         12.59413       -1.21302       -4.95659
H         12.66391       -2.59702       -7.05393
H         11.41907       -3.66174       -6.40019
H         12.92775       -4.22775       -4.46028
H         14.18600       -3.20160       -5.13800
H         14.33309       -4.67595       -7.15346
H         13.01537       -5.67702       -6.54017
H         14.36228       -6.19069       -4.47372
H         15.70912       -5.25699       -5.11252
H         14.53188       -7.78319       -6.39874
H         15.95576       -7.72087       -5.35515
H         16.91049       -5.98700       -7.09460
H         15.67102       -6.56538       -8.19266
H         17.86475       -7.56922       -8.57622
H         17.34581       -9.80087       -8.94506
H         15.77924       -8.98594       -9.05195
H         15.83825      -11.18561       -7.70156
H         15.08343       -9.80889       -6.87671
H         16.88278      -11.12678       -5.56200
H         19.90941       -8.71066       -3.34493
H         19.45705       -7.59986       -4.61685
H         20.91386       -8.97928       -6.25179
H         21.35909      -10.00999       -4.90484
H         22.04380       -7.03887       -5.30914
H         23.14581       -8.40758       -5.29651
H         21.61988       -7.21088       -2.90855
H         23.34087       -7.11331       -3.20984
H         23.67907       -9.46671       -2.65366
H         21.96389       -9.83413       -2.83227
H         21.47879       -8.24901       -0.87758
H         23.23668       -8.26777       -0.53964
H         22.08427      -12.13806        1.00066
H         19.08908      -12.37445        0.23750
H         20.04364      -13.51566        1.35198
H         17.30776      -10.81132       -3.71045
H         18.71856      -10.30715       -2.79868
H         20.19858      -11.83327       -4.00220
H         18.94277      -12.26767       -5.16009
H         17.55455      -13.22043       -3.25482
H         18.84567      -12.80931       -2.12721
H         20.41959      -14.33141       -3.38433
H         19.11554      -14.76140       -4.48945
H         19.27190      -16.52558       -2.88137
H         17.77680      -15.64564       -2.53349
H         20.27247      -15.36585       -1.00519
H         18.83644      -15.94221       -0.48003
H         18.78180       -7.67208       -6.36892
