35

C          5.76478        2.67158        1.17183
N          5.64027        1.22255        1.04058
C          5.79206        0.35766        2.00237
S          5.64465       -1.29313        1.62458
C          5.06921       -0.86778       -0.09530
C          5.49286        0.59677       -0.34904
N          4.62318        1.35296       -1.17034
C          5.59287       -1.82099       -1.16154
C          5.11623       -3.27022       -1.01629
C          5.59418       -4.18612       -2.14994
S          7.39482       -4.40828       -2.22769
C          7.90362       -3.23080       -3.45230
S          6.92313       -2.38449       -4.46819
N          9.29878       -3.13882       -3.49427
C         10.21583       -3.47432       -2.48377
N         11.44204       -3.20998       -2.83777
C         11.35965       -2.69665       -4.12892
C         10.06235       -2.62816       -4.54870
H          5.81916        2.94392        2.23040
H          4.89634        3.14333        0.69791
H          6.67365        3.00893        0.65241
H          6.01715        0.67555        3.02248
H          3.96828       -0.91758       -0.03091
H          6.51115        0.63233       -0.77414
H          3.65078        1.05613       -1.17991
H          4.96853        1.53744       -2.10585
H          6.69413       -1.78428       -1.16909
H          5.26502       -1.42757       -2.13779
H          4.01363       -3.30295       -1.00677
H          5.44862       -3.68469       -0.04905
H          5.28377       -3.81629       -3.14002
H          5.19944       -5.20186       -2.01555
H          9.89389       -3.86628       -1.52391
H         12.25281       -2.41012       -4.67497
H          9.59449       -2.29890       -5.46703
