44

C          0.68617       -6.03960       -1.80217
C          2.21415       -6.03728       -1.72945
C          2.84573       -4.82259       -2.41687
C          4.37703       -4.82021       -2.35657
C          4.99371       -3.61363       -3.07662
C          6.50799       -3.64471       -3.04894
O          7.00277       -2.47568       -3.78563
C          8.35191       -2.33171       -3.83396
S          9.10494       -3.36698       -5.28301
C          8.26933       -2.59816       -6.70330
C          8.58541       -3.32593       -8.01847
C          7.84775       -2.65424       -9.16002
C          8.48869       -1.68875       -9.94957
C          7.80471       -1.06008      -10.99301
C          6.47166       -1.38820      -11.25293
C          5.82463       -2.34895      -10.46998
C          6.50912       -2.97787       -9.42793
N         10.67729       -2.86866       -5.46194
H          0.26437       -6.92311       -1.30525
H          0.33680       -6.04622       -2.84508
H          0.26172       -5.14949       -1.31540
H          2.60771       -6.95857       -2.19101
H          2.53451       -6.06425       -0.67461
H          2.46016       -3.89744       -1.95521
H          2.52358       -4.79343       -3.47243
H          4.75905       -5.75381       -2.80495
H          4.70195       -4.82919       -1.30227
H          4.64664       -2.67714       -2.61299
H          4.65649       -3.59463       -4.12553
H          6.89950       -4.55897       -3.52929
H          6.90398       -3.59014       -2.02102
H          8.90704       -2.69999       -2.95339
H          8.61666       -1.29137       -4.07749
H          8.56047       -1.53635       -6.72642
H          7.20185       -2.65820       -6.43796
H          8.28302       -4.38084       -7.93438
H          9.66882       -3.30303       -8.20189
H          9.53673       -1.44203       -9.76305
H          8.31712       -0.32141      -11.61006
H          5.94111       -0.90552      -12.07416
H          4.78838       -2.61728      -10.67801
H          6.00289       -3.74223       -8.83292
H         11.35114       -3.49956       -5.03069
H         10.87446       -1.88203       -5.28623
