51

O          2.92239       -0.34750       -0.97949
C          3.38873       -0.89879       -0.01359
C          3.93163       -2.36454       -0.12163
C          4.86901       -2.63154       -1.36129
C          6.12324       -1.66335       -1.47164
C          5.98751       -0.61101       -2.62162
O          5.40566        0.42669       -2.43953
O          6.55237       -0.95192       -3.78410
F          6.27196       -0.98557       -0.29268
F          7.24194       -2.41971       -1.66573
F          5.30286       -3.90803       -1.24917
F          4.14355       -2.52896       -2.50572
F          4.62683       -2.72440        0.99574
F          2.85420       -3.18744       -0.23812
C          3.40313       -0.22920        1.34859
N          2.91896       -1.01724        2.30076
N          2.80500       -0.52948        3.53224
C          3.21196        0.72566        3.85320
C          3.70656        1.56282        2.87081
C          3.81174        1.12136        1.54183
C          4.27176        2.02618        0.45775
C          3.06985        2.87299       -0.11570
C          3.55330        3.86789       -1.13586
C          3.86691        5.18197       -0.75504
C          4.32316        6.10384       -1.69794
C          4.48008        5.71739       -3.03257
C          4.17551        4.40872       -3.42014
C          3.71816        3.48784       -2.47743
C          2.25904       -1.43933        4.51305
C          2.57373       -2.79831        4.40523
C          2.05188       -3.67793        5.35058
C          1.22436       -3.20471        6.37475
C          0.91050       -1.84466        6.45817
C          1.42691       -0.94709        5.52453
H          7.04084       -1.79485       -3.70649
H          3.15326        0.99790        4.90480
H          4.03438        2.56453        3.14983
H          4.73082        1.47319       -0.37076
H          5.01638        2.72543        0.86349
H          2.57314        3.39183        0.71830
H          2.34592        2.17708       -0.55939
H          3.73585        5.49077        0.28504
H          4.55018        7.12603       -1.39375
H          4.83563        6.43714       -3.77046
H          4.28939        4.10554       -4.46135
H          3.48695        2.46633       -2.78356
H          3.22065       -3.14765        3.60215
H          2.29659       -4.73796        5.28862
H          0.81637       -3.90047        7.10792
H          0.24671       -1.48087        7.24190
H          1.14376        0.10529        5.56210
