53

C          1.50586        0.70188        1.59981
C          2.91884        0.19341        1.39755
O          3.83730        1.31024        1.09393
C          3.99458        1.63484       -0.18588
O          3.49174        1.09860       -1.15783
C          4.86650        2.88033       -0.32530
C          4.00215        4.16378       -0.14444
N          4.61773        5.38405       -0.62833
C          5.10998        5.28690       -1.99368
C          6.11989        4.11372       -2.17249
N          5.41641        2.85284       -1.72318
C          7.43550        4.35123       -1.40865
C          8.74340        3.61340       -1.75272
O          8.93876        2.32767       -1.05772
C          8.29070        1.21843       -1.44057
O          7.36384        1.19671       -2.25068
C          8.74956       -0.00371       -0.69701
S          7.58823       -0.27105        0.70477
C          9.11224        3.52323       -3.23398
O         10.54079        3.42056       -3.36902
C         11.05956        2.16895       -3.57006
O         10.39562        1.15272       -3.55703
C         12.54706        2.24102       -3.81273
S         12.93064        2.85331       -5.49591
C          5.67702        6.57432       -2.53054
C          5.62749        7.76088       -1.92242
H          0.86355       -0.13621        1.90342
H          1.09234        1.12118        0.67355
H          1.46516        1.46163        2.39110
H          2.98948       -0.53370        0.57953
H          3.34089       -0.23588        2.31326
H          5.70318        2.84563        0.38220
H          3.75318        4.26804        0.91863
H          3.05307        4.01369       -0.68785
H          5.31843        5.75724        0.01239
H          4.23326        5.02860       -2.62425
H          6.31452        3.96124       -3.24446
H          6.11462        2.06068       -1.86526
H          4.61947        2.61999       -2.34050
H          7.28238        4.25366       -0.32419
H          7.66442        5.41810       -1.56225
H          9.53715        4.20374       -1.27410
H          9.77955        0.07417       -0.33869
H          8.64186       -0.87449       -1.35344
H          8.18439        0.59902        1.55375
H          8.84105        4.46748       -3.72771
H          8.62407        2.68284       -3.74291
H         12.98830        1.25300       -3.64975
H         13.00898        2.96909       -3.13442
H         12.51420        1.74338       -6.14987
H          6.13589        6.49341       -3.52152
H          5.14374        7.89782       -0.95447
H          6.04658        8.64791       -2.39558
