88

C         14.61834       -9.15355        0.48084
C         14.57007       -7.62730        0.58465
C         14.84629       -6.91783       -0.74571
C         14.75680       -5.39139       -0.65747
C         15.03715       -4.67855       -1.98430
C         14.89492       -3.15581       -1.90051
C         15.16803       -2.43632       -3.22507
C         14.97608       -0.91863       -3.14338
C         15.23340       -0.19612       -4.46920
C         15.00269        1.31707       -4.38901
C         15.24487        2.03428       -5.72412
C         14.97275        3.52999       -5.61807
O         15.31314        4.28201       -6.80980
C         14.46674        4.01610       -7.90670
C         14.80886        5.00067       -8.97404
N         15.04649        4.70198      -10.25597
N         15.36971        5.82486      -10.88364
N         15.36173        6.80832      -10.02149
N         14.99858        6.33383       -8.79787
C         14.84409        7.20243       -7.58332
O         15.63489        8.07214       -7.35427
O         13.75604        6.80808       -6.97511
C         13.43543        7.48581       -5.68365
C         12.49715        8.65403       -5.91719
C         12.08458        9.30708       -4.58709
C         11.11181       10.47213       -4.78828
C         15.77694        8.18679      -10.37758
C         17.27127        8.44851      -10.14627
C         18.22186        7.55706      -10.95151
C         19.68065        8.01376      -10.81905
C         20.66402        7.10820      -11.56843
C         22.10057        7.60533      -11.41807
O         23.03330        6.79139      -12.16293
C         23.53346        5.70072      -11.50121
O         23.20287        5.38812      -10.37175
C         24.51803        4.99701      -12.35808
C         25.17746        3.92178      -11.91311
H         14.42179       -9.63067        1.45075
H         15.60310       -9.50034        0.13369
H         13.86799       -9.52855       -0.23134
H         15.30101       -7.28447        1.33653
H         13.58153       -7.31501        0.96228
H         14.13183       -7.28055       -1.50604
H         15.84715       -7.20704       -1.11237
H         15.46367       -5.02672        0.10867
H         13.75182       -5.10736       -0.29807
H         14.35031       -5.06542       -2.75784
H         16.05415       -4.93431       -2.33009
H         15.57860       -2.76612       -1.12579
H         13.87606       -2.90584       -1.55527
H         14.50263       -2.84526       -4.00585
H         16.19665       -2.65894       -3.55878
H         15.64332       -0.50603       -2.36645
H         13.94781       -0.70116       -2.80440
H         14.57953       -0.62262       -5.25003
H         16.26798       -0.39109       -4.80056
H         15.66216        1.74869       -3.61653
H         13.96954        1.50846       -4.04989
H         14.59941        1.57844       -6.49385
H         16.28673        1.88576       -6.05070
H         15.59760        3.98355       -4.83636
H         13.91189        3.72373       -5.36720
H         13.39487        4.12256       -7.63907
H         14.60810        3.01398       -8.34678
H         14.38574        7.78430       -5.22370
H         12.97190        6.68196       -5.09934
H         11.60319        8.30019       -6.45464
H         12.99225        9.40184       -6.55734
H         12.98496        9.66084       -4.05922
H         11.62204        8.54824       -3.93495
H         11.55102       11.25846       -5.41899
H         10.84449       10.92808       -3.82672
H         10.18070       10.13762       -5.26806
H         15.14506        8.87362       -9.80222
H         15.51091        8.25754      -11.44021
H         17.48929        8.39154       -9.07082
H         17.41273        9.50369      -10.43357
H         17.92884        7.55885      -12.01487
H         18.14300        6.50977      -10.61408
H         19.95614        8.04764       -9.75118
H         19.76911        9.04912      -11.19159
H         20.40655        7.06805      -12.63900
H         20.59949        6.08077      -11.17819
H         22.40094        7.61386      -10.36032
H         22.21631        8.61368      -11.83929
H         24.68147        5.40698      -13.35556
H         24.99834        3.53878      -10.90718
H         25.90942        3.40674      -12.53416
