61

C          6.46633        0.01730       -6.57517
O          6.11509       -0.40995       -5.26660
C          6.72162        0.37990       -4.26002
C          6.30703       -0.13667       -2.89873
O          6.89686       -1.42017       -2.67952
C          6.49822       -2.02819       -1.46188
C          6.87304       -3.50958       -1.51706
C          8.32320       -3.76161       -1.91978
C          8.71166       -5.24309       -1.99770
N         10.14532       -5.24139       -1.62659
C         10.41502       -4.09633       -0.95345
N         11.54808       -3.67464       -0.39446
C         12.83910       -4.34570       -0.21885
C         13.86738       -3.32449        0.30487
C         13.40056       -2.62093        1.57906
O         12.27104       -2.09972        1.62245
N         14.29079       -2.60458        2.60459
C         14.18449       -2.04978        3.90780
C         13.04039       -1.38636        4.37746
C         13.03469       -0.89424        5.68513
C         14.14169       -1.05132        6.52229
C         15.27959       -1.70872        6.04474
C         15.30259       -2.20607        4.74421
N          9.31777       -3.28430       -0.93613
C         10.87683       -6.52526       -1.55227
C         10.39049       -7.39289       -0.38570
O         10.60463       -6.66166        0.82054
C         10.79448       -7.27833       -2.88174
H          5.95272       -0.64825       -7.27900
H          7.55736       -0.04985       -6.74408
H          6.14494        1.05825       -6.76291
H          6.40573        1.43958       -4.34529
H          7.82662        0.35303       -4.35332
H          5.20521       -0.21809       -2.85050
H          6.63618        0.58048       -2.12199
H          5.40612       -1.93679       -1.31415
H          6.98066       -1.52618       -0.59644
H          6.23247       -4.00492       -2.26307
H          6.66966       -3.97191       -0.53874
H          8.51233       -3.27004       -2.88842
H          8.56666       -5.65948       -3.00046
H          8.13542       -5.84176       -1.27149
H         11.48025       -2.86631        0.26223
H         13.20362       -4.72723       -1.18246
H         12.74093       -5.18962        0.48270
H         14.02405       -2.54425       -0.45691
H         14.82534       -3.84377        0.44229
H         15.18004       -3.06139        2.42165
H         12.17766       -1.26186        3.72970
H         12.14534       -0.38008        6.05108
H         14.11976       -0.66395        7.54092
H         16.15263       -1.83646        6.68506
H         16.19305       -2.71992        4.37251
H          9.46934       -2.28360       -0.84158
H         11.92671       -6.28181       -1.36143
H         10.97014       -8.33252       -0.39921
H          9.32511       -7.65513       -0.51625
H         10.27483       -7.18264        1.56883
H          9.78118       -7.64847       -3.08761
H         11.46310       -8.14769       -2.85321
H         11.10731       -6.63621       -3.71453
