91

C          0.80896       -5.96958        5.06939
O          2.19221       -5.96197        5.39972
C          2.97087       -5.25185        4.45507
C          4.39776       -5.20912        4.98396
O          5.21350       -4.64940        3.95711
C          6.58061       -4.57698        4.29721
C          7.29538       -4.04709        3.06090
O          8.71280       -4.19058        3.25953
C          9.45522       -4.02022        2.05771
C         10.90298       -4.40624        2.37468
P         10.99725       -5.86963        3.45923
C          9.85813       -7.19787        2.97859
C         10.11054       -7.81531        1.59455
O          8.96434       -8.58967        1.21061
C          7.91905       -7.85911        0.68324
O          7.99488       -6.65773        0.51263
C          6.71791       -8.72494        0.42642
C          5.97281       -9.08079        1.73729
C          5.51364       -7.86794        2.54947
C         12.73577       -6.37729        3.62233
C         13.01897       -7.49174        4.65454
C         12.81819       -8.91813        4.12870
C         13.24408      -10.00338        5.12434
C         13.04743      -11.41591        4.56331
C         13.49033      -12.53930        5.50679
C         13.29950      -13.93021        4.89254
C         13.75025      -15.08832        5.78883
C         13.56261      -16.45563        5.12230
C         14.01434      -17.64390        5.97831
C         13.81952      -18.98760        5.26911
C         14.27150      -20.18780        6.11293
N         14.09018      -21.46229        5.43313
C         12.92785      -22.20345        5.42561
C         13.10405      -23.27761        4.57177
C         14.41813      -23.17925        4.03494
C         15.00006      -22.04822        4.57913
H          0.29848       -6.55489        5.84266
H          0.63103       -6.43775        4.08409
H          0.39215       -4.94637        5.05407
H          2.58704       -4.22309        4.31300
H          2.95774       -5.75268        3.46615
H          4.73416       -6.23386        5.23194
H          4.45158       -4.60077        5.90550
H          6.97976       -5.58152        4.55486
H          6.74909       -3.92018        5.17258
H          7.04386       -2.98773        2.88485
H          6.97712       -4.63376        2.18247
H          9.42257       -2.97297        1.70707
H          9.04777       -4.66599        1.26092
H         11.43038       -3.61056        2.92437
H         11.47514       -4.61266        1.45866
H         10.58650       -5.47135        4.74843
H          8.86751       -6.72314        3.00619
H          9.88963       -7.95974        3.77078
H         10.94816       -8.52222        1.61569
H         10.29688       -7.04208        0.83516
H          7.03887       -9.64877       -0.07456
H          6.05829       -8.16616       -0.24976
H          6.61729       -9.72801        2.35172
H          5.10334       -9.69229        1.45617
H          6.36257       -7.28396        2.93438
H          4.91820       -8.18533        3.41610
H          4.89778       -7.18070        1.95314
H         13.26118       -5.44694        3.89379
H         13.09620       -6.65771        2.61941
H         12.42231       -7.32769        5.56778
H         14.06765       -7.37263        4.96687
H         13.39456       -9.03831        3.19483
H         11.76287       -9.09023        3.85848
H         12.67246       -9.89090        6.06179
H         14.30398       -9.85555        5.39328
H         13.60316      -11.50545        3.61329
H         11.98320      -11.55912        4.30384
H         12.92801      -12.47089        6.45439
H         14.55215      -12.39666        5.77266
H         13.85150      -13.97950        3.93726
H         12.23542      -14.06825        4.63089
H         13.18933      -15.06031        6.73927
H         14.81189      -14.95257        6.05912
H         14.11495      -16.46998        4.16636
H         12.49906      -16.58626        4.85585
H         13.45696      -17.64258        6.93152
H         15.07757      -17.51796        6.24855
H         14.37831      -18.99513        4.31908
H         12.75833      -19.12235        5.00347
H         13.71088      -20.22363        7.05970
H         15.33576      -20.09131        6.37707
H         12.07981      -21.90962        6.03628
H         12.37401      -24.05509        4.37099
H         14.89363      -23.86647        3.34233
H         15.98657      -21.61686        4.44049
