54

C          2.29424       -0.71488        2.14194
C          3.62658       -1.42954        2.25844
O          4.24954       -1.60717        0.93684
C          3.92886       -2.72010        0.25406
O          3.18537       -3.60268        0.64021
C          4.65717       -2.76225       -1.08226
C          6.14855       -3.11053       -1.02008
N          6.46585       -4.44484       -0.30806
C          5.87917       -5.62896       -1.04529
C          6.44951       -5.64859       -2.47120
N          6.34087       -4.38684       -3.18167
C          6.81391       -3.23618       -2.42781
C          6.69759       -1.94872       -3.27005
C          7.07873       -0.73616       -2.42391
O          7.96643       -0.74629       -1.58740
O          6.31594        0.32642       -2.73261
C          6.57836        1.56592       -1.99072
C          5.74503        1.61405       -0.72230
C          7.60604       -2.00006       -4.51501
C          6.21195       -4.46756        1.18565
C          7.16017       -5.43865        1.90474
C          7.02069       -5.29851        3.38154
C          6.56966       -6.23177        4.22950
F          6.17795       -7.43819        3.83477
F          6.46869       -6.07104        5.53159
F          7.38984       -4.09083        3.88369
H          1.89588       -0.53007        3.14899
H          1.56121       -1.32145        1.59593
H          2.40763        0.25438        1.63974
H          3.52084       -2.41860        2.72255
H          4.36514       -0.83689        2.81067
H          4.60313       -1.75927       -1.52852
H          4.10325       -3.44994       -1.73314
H          6.69149       -2.35831       -0.43254
H          7.49147       -4.52268       -0.41419
H          4.78846       -5.51684       -1.01296
H          6.15463       -6.53699       -0.49388
H          5.94753       -6.43902       -3.04392
H          7.51765       -5.93022       -2.41981
H          5.41611       -4.24077       -3.58545
H          7.89377       -3.39395       -2.23300
H          5.65532       -1.81893       -3.60230
H          6.29734        2.35651       -2.69575
H          7.65350        1.62163       -1.77943
H          4.67458        1.51936       -0.94940
H          5.90025        2.57953       -0.22107
H          6.03358        0.81935       -0.02208
H          8.66373       -2.04226       -4.22139
H          7.45305       -1.10673       -5.13248
H          7.37736       -2.88522       -5.11953
H          5.16181       -4.73491        1.34470
H          6.37615       -3.44378        1.54610
H          8.20820       -5.21927        1.62657
H          6.95524       -6.48268        1.63291
