68

C          1.21645        2.45319       -3.32817
C          2.16776        2.43835       -2.14936
O          3.29655        1.53185       -2.39466
P          3.29998        0.04658       -1.79722
O          2.08995       -0.33360       -1.02564
C          3.61077       -1.05555       -3.22709
C          3.55244       -2.49294       -2.71102
N          3.61583       -3.53384       -3.77016
C          2.53072       -4.10148       -4.30520
N          2.92739       -5.10907       -5.09371
C          4.30508       -5.21153       -5.09521
C          4.74862       -4.19229       -4.26370
C          6.08914       -3.76513       -3.95595
N          6.46634       -2.66923       -3.35439
N          7.84820       -2.65935       -3.36079
C          8.22055       -3.75931       -3.97913
O          7.14815       -4.52808       -4.37492
S          9.79051       -4.33898       -4.37805
C         10.80969       -3.00266       -3.63176
C         12.24395       -3.15761       -4.12775
C          5.02472       -6.28884       -5.83340
C          5.07667       -6.14090       -7.36883
O          5.90734       -5.02663       -7.75873
C          5.29521       -3.81982       -7.91638
O          4.12669       -3.60978       -7.65147
C          6.27259       -2.79209       -8.43316
S          7.28812       -2.10337       -7.07019
C          5.71526       -7.39460       -7.96635
O          5.80828       -7.33519       -9.39583
C          4.64818       -7.57835      -10.07790
O          3.59599       -7.85710       -9.53924
C          4.86042       -7.40945      -11.56165
S          4.71870       -5.63739      -12.01013
O          4.71216       -0.10434       -1.06129
C          4.95766        0.55946        0.21951
C          6.22769       -0.01897        0.80657
H          0.42492        3.19503       -3.15037
H          0.73401        1.47459       -3.45733
H          1.73615        2.72414       -4.25652
H          1.66102        2.12558       -1.22688
H          2.63450        3.41880       -1.98920
H          4.58798       -0.82725       -3.67059
H          2.81617       -0.85837       -3.96101
H          2.61523       -2.66462       -2.16546
H          4.39164       -2.68685       -2.03369
H          1.50565       -3.81120       -4.10548
H          2.30145       -5.67559       -5.66012
H         10.73461       -3.10038       -2.54157
H         10.36520       -2.04585       -3.93064
H         12.66305       -4.14208       -3.87902
H         12.87197       -2.39824       -3.64343
H         12.31457       -3.01276       -5.21369
H          4.53464       -7.25007       -5.60568
H          6.04929       -6.35580       -5.44829
H          4.07081       -5.98776       -7.78483
H          5.72850       -1.99147       -8.94361
H          6.98691       -3.25517       -9.12402
H          6.30605       -1.35055       -6.52018
H          5.13025       -8.27642       -7.66660
H          6.75200       -7.49749       -7.62052
H          4.12810       -8.00515      -12.11526
H          5.87689       -7.70230      -11.84924
H          3.37796       -5.55619      -11.83916
H          4.09069        0.39174        0.87569
H          5.05572        1.63874        0.02675
H          6.11409       -1.09175        1.01070
H          6.46071        0.48728        1.75329
H          7.07508        0.12012        0.12266
