57

C         11.58467        2.72185       -2.90795
C         10.93887        1.64855       -2.02878
C         11.45303        0.23343       -2.31801
C         10.80389       -0.84081       -1.43937
C         11.29024       -2.26060       -1.75445
C         10.70778       -3.36478       -0.85503
C          9.17344       -3.46034       -0.82576
C          8.51436       -3.68434       -2.18985
N          8.93759       -4.93778       -2.85122
C          9.73289       -4.95914       -3.93271
N          9.95323       -6.23248       -4.28638
C          9.27130       -7.04868       -3.40755
C          8.62558       -6.25144       -2.49657
C          7.74718       -6.68780       -1.36551
C          6.28006       -6.19039       -1.36071
C          5.46191       -6.37094       -2.63967
C          5.24207       -7.83568       -3.14669
Br         4.47192       -9.00803       -1.78845
F          4.47073       -7.84482       -4.24560
F          6.45681       -8.35269       -3.51290
Br         3.71388       -5.52031       -2.38673
F          6.09311       -5.71438       -3.69333
C         10.69190       -6.66918       -5.48670
C          9.76260       -6.99896       -6.65910
C          8.85557       -5.82555       -7.09479
C          9.59054       -4.58573       -7.31407
C         10.24509       -3.57767       -7.46285
H         11.19132        3.71999       -2.67399
H         11.39611        2.53329       -3.97539
H         12.67476        2.75354       -2.76512
H          9.84390        1.66992       -2.16443
H         11.11514        1.88620       -0.96637
H         12.54810        0.20510       -2.18245
H         11.27524       -0.00769       -3.38195
H          9.70781       -0.77403       -1.55804
H         11.00198       -0.61761       -0.37668
H         12.38743       -2.29473       -1.66367
H         11.08865       -2.47937       -2.81922
H         11.04819       -3.20173        0.17915
H         11.13213       -4.33878       -1.15234
H          8.73932       -2.53120       -0.42663
H          8.86650       -4.25130       -0.12518
H          8.77001       -2.87589       -2.88675
H          7.42065       -3.70084       -2.11506
H         10.11397       -4.09060       -4.45848
H          9.28014       -8.12790       -3.50224
H          8.18764       -6.37127       -0.40776
H          7.76825       -7.78500       -1.35515
H          6.23471       -5.11975       -1.12394
H          5.75203       -6.70038       -0.54510
H         11.29318       -7.54186       -5.20200
H         11.37719       -5.85458       -5.75320
H          9.13104       -7.86553       -6.41368
H         10.40838       -7.30015       -7.49662
H          8.06527       -5.65613       -6.34340
H          8.32744       -6.10958       -8.01791
H         10.79944       -2.68121       -7.65119
