51

F          2.43051       -2.04611       -1.93127
C          1.83115       -0.78828       -1.75003
C          2.67555        0.07214       -0.81953
C          4.07504        0.34532       -1.37354
C          5.01698       -0.88984       -1.36879
N          6.29679       -0.32347       -0.93198
C          6.13341        0.91262       -0.45022
N          7.13560        1.62684        0.08788
C          8.46774        1.04328        0.35589
O          9.02760        0.42852       -0.76539
C          9.50912        1.34102       -1.78763
C         10.04919        0.52896       -2.95059
C          8.99396       -0.30561       -3.68911
C          9.56248       -1.03642       -4.90766
N          4.85713        1.32918       -0.55862
C          4.38766        2.65767       -0.16165
C          4.74920        3.80363       -1.12547
C          4.29536        3.54251       -2.56589
C          4.53248        4.74247       -3.48650
S          4.18091        4.22493       -5.18907
O          5.18431        3.26392       -5.59199
O          2.77175        3.93056       -5.31052
Cl         4.55282        5.98824       -6.20735
H          0.83144       -0.95382       -1.32462
H          1.72671       -0.33010       -2.74677
H          2.74471       -0.39527        0.17503
H          2.12486        1.01849       -0.69722
H          3.98093        0.74012       -2.39979
H          5.10306       -1.34416       -2.36149
H          4.67551       -1.65942       -0.66209
H          7.22424       -0.69392       -1.12969
H          6.98037        2.60733        0.28708
H          8.37270        0.25814        1.11962
H          9.08739        1.86699        0.74756
H         10.29356        1.97700       -1.34206
H          8.67774        1.99086       -2.11833
H         10.86198       -0.11978       -2.58699
H         10.51383        1.23960       -3.65370
H          8.16397        0.35174       -4.00272
H          8.56300       -1.04842       -2.99623
H          9.97001       -0.32691       -5.64191
H          8.79114       -1.63103       -5.41406
H         10.37432       -1.71936       -4.61974
H          4.76790        2.86989        0.85010
H          3.29718        2.59240       -0.05757
H          5.83564        3.99413       -1.11519
H          4.27804        4.71673       -0.72861
H          3.22500        3.28437       -2.58356
H          4.84586        2.68104       -2.97318
H          5.57738        5.08154       -3.48736
H          3.86817        5.58943       -3.27054
