56

C          3.06140       -0.00184        1.47778
C          2.75258       -1.20427        0.58606
C          3.26646       -1.06951       -0.86664
C          4.75584       -1.06193       -0.98038
N          5.50780       -2.13986       -0.85642
N          6.78744       -1.70952       -1.03071
C          6.83604       -0.40198       -1.26099
N          5.55935        0.04432       -1.22554
C          5.10245        1.43781       -1.42847
C          6.18650        2.46993       -1.16692
O          7.17084        2.33390       -2.17404
C          8.29817        3.20398       -2.00697
C          9.31763        2.87324       -3.07264
O          9.82348        1.55279       -2.82532
C          7.88712       -2.68598       -0.92586
C          9.26345       -2.06593       -1.08089
O          9.46129       -1.13993       -0.03332
C         10.82083       -0.68722        0.06712
C         10.95985        0.20983        1.27700
O         10.83029       -0.56332        2.45331
C         10.92655        0.22178        3.63907
C         10.79023       -0.71289        4.83354
O         10.80172        0.09317        5.99759
C         10.73268       -0.67398        7.19174
H          2.66269       -0.15714        2.48826
H          2.60269        0.91915        1.08707
H          4.14394        0.16803        1.58460
H          1.66530       -1.35750        0.53090
H          3.17480       -2.12175        1.02160
H          2.85242       -0.16593       -1.33680
H          2.90983       -1.92626       -1.45598
H          7.71687        0.20109       -1.45890
H          4.26426        1.60582       -0.74197
H          4.74037        1.53213       -2.46249
H          6.62148        2.33383       -0.15636
H          5.71401        3.47015       -1.19236
H          8.73847        3.06203       -1.00205
H          7.98661        4.25943       -2.10693
H         10.12381        3.62563       -3.02394
H          8.84244        2.93364       -4.06682
H         10.44900        1.33753       -3.53398
H          7.71540       -3.44887       -1.69741
H          7.78687       -3.15702        0.06116
H          9.38000       -1.58713       -2.07517
H          9.99426       -2.89549       -1.03263
H         11.09773       -0.12153       -0.84119
H         11.49304       -1.55858        0.16778
H         10.18935        1.00764        1.24286
H         11.95098        0.70464        1.23250
H         10.12353        0.98333        3.66931
H         11.89695        0.75126        3.68099
H         11.62496       -1.44073        4.84345
H          9.84538       -1.28712        4.75463
H         10.74824        0.03374        8.02891
H         11.59403       -1.36062        7.28118
H          9.80110       -1.26799        7.23693
