66

F          3.06038        0.87479       -1.39464
C          1.79763        1.28649       -1.11011
C          0.84465        0.35741       -0.96824
F         -0.42087        0.66390       -0.67221
F          1.02209       -0.94080       -1.10362
C          1.61984        2.75649       -0.96401
C          2.26252        3.29148        0.33454
N          2.11018        4.75122        0.49205
C          0.86202        5.26651        0.67687
N         -0.07379        4.46014        1.22980
C         -1.53130        4.64154        1.19059
C         -1.87880        5.94768        0.48536
C         -0.81350        6.97972        0.84877
N          0.50507        6.52952        0.35695
C          1.19457        7.36451       -0.64899
C          1.28701        6.76028       -2.05520
C          2.29328        7.56417       -2.88197
C          2.55035        7.00313       -4.28756
N          3.75210        7.57275       -4.87641
C          3.89773        8.88087       -5.28849
C          5.22332        9.08063       -5.62872
C          5.90780        7.85281       -5.40821
C          4.97832        6.94351       -4.93645
C          3.34959        5.56618        0.50925
C          3.52706        6.44203        1.75151
C          4.81489        7.29200        1.65924
C          4.81843        8.25397        0.48812
C          5.56524        7.98477       -0.66952
C          5.53508        8.85112       -1.76661
C          4.75587       10.00958       -1.71908
C          4.01439       10.29772       -0.56914
C          4.04552        9.42669        0.52299
H          0.54666        2.98812       -0.98766
H          2.08223        3.25989       -1.82827
H          3.33878        3.08973        0.31798
H          1.88013        2.73417        1.20672
H          0.26669        3.62546        1.69211
H         -1.89615        4.65415        2.22864
H         -1.98884        3.77658        0.68669
H         -2.87731        6.28216        0.79423
H         -1.89613        5.81660       -0.60632
H         -0.76551        7.12936        1.93986
H         -1.01995        7.95110        0.38943
H          2.19403        7.64128       -0.28873
H          0.63599        8.30770       -0.68357
H          0.29169        6.73987       -2.52696
H          1.62541        5.71368       -1.99163
H          3.25583        7.58496       -2.34973
H          1.97304        8.61512       -2.95758
H          1.69317        7.18791       -4.95390
H          2.69451        5.91291       -4.24512
H          3.04701        9.55404       -5.32073
H          5.64619       10.00105       -6.01851
H          6.95644        7.64855       -5.59943
H          5.07784        5.89740       -4.66427
H          3.43444        6.16721       -0.40741
H          4.17476        4.84510        0.46248
H          3.56697        5.80180        2.64590
H          2.66149        7.11035        1.88016
H          5.68882        6.62546        1.59000
H          4.92423        7.84780        2.60213
H          6.18693        7.08686       -0.71062
H          6.10612        8.61742       -2.66571
H          4.73280       10.68101       -2.57756
H          3.42121       11.21199       -0.51510
H          3.47777        9.67199        1.42463
