65

C          3.37820        3.14864       -1.14654
C          4.21985        2.01253       -0.56096
C          4.64058        0.96907       -1.60315
C          5.44978       -0.18633       -1.00229
C          5.90575       -1.21524       -2.04867
C          6.65672       -2.35742       -1.38723
O          7.06172       -3.38638       -2.37827
C          8.25043       -3.25693       -2.93252
O          9.08809       -2.39137       -2.71587
C          8.52953       -4.35929       -3.95900
N          9.99537       -4.28064       -4.26520
C         10.84097       -5.19010       -3.34519
C         10.55484       -6.65584       -3.48001
C          9.64298       -7.27559       -2.61243
C          9.38147       -8.64165       -2.73825
C         10.03440       -9.39160       -3.71537
C         10.97302       -8.80142       -4.58057
C         11.21766       -7.42931       -4.44771
C         11.71493       -9.63268       -5.59322
C         10.34463       -4.40287       -5.72948
C          9.83276       -3.21856       -6.55130
C         10.50292       -3.13214       -7.93271
C         10.17118       -4.29865       -8.88278
N         10.82498       -4.15933      -10.16821
C         10.35694       -3.40445      -11.22640
C         11.32756       -3.39652      -12.20941
C         12.42726       -4.16221      -11.72965
C         12.09497       -4.61497      -10.46758
H          3.10642        3.88265       -0.37657
H          2.44461        2.76924       -1.58737
H          3.92349        3.68521       -1.93727
H          3.65466        1.51267        0.24380
H          5.12213        2.42909       -0.08258
H          5.23344        1.46089       -2.39406
H          3.74245        0.56528       -2.10194
H          4.84258       -0.69110       -0.23141
H          6.33301        0.21898       -0.47988
H          6.55697       -0.72620       -2.79074
H          5.03438       -1.61682       -2.58948
H          6.02236       -2.92016       -0.69216
H          7.56293       -2.01473       -0.87210
H          7.94928       -4.16332       -4.86883
H          8.27269       -5.35995       -3.59391
H         10.22228       -3.30850       -3.94627
H         10.63764       -4.82915       -2.32851
H         11.88237       -4.94595       -3.59270
H          9.16010       -6.70074       -1.81878
H          8.67724       -9.12463       -2.06062
H          9.83115      -10.46085       -3.79832
H         11.96560       -6.96359       -5.09471
H         11.02342      -10.23871       -6.19476
H         12.40203      -10.33148       -5.09323
H         12.30863       -9.01141       -6.27482
H          9.96060       -5.37060       -6.07641
H         11.44247       -4.44191       -5.77002
H         10.04190       -2.28406       -6.00510
H          8.73916       -3.27181       -6.67714
H         11.59623       -3.06625       -7.81524
H         10.19011       -2.19413       -8.41252
H          9.08328       -4.35749       -9.04627
H         10.48216       -5.26473       -8.45535
H          9.37020       -2.95325      -11.19507
H         11.24731       -2.90831      -13.17500
H         13.35199       -4.37378      -12.25641
H         12.64382       -5.23417       -9.76471
