50

C         11.41012        2.23247        5.93337
C         10.20968        1.33475        6.24149
C          9.63665        0.64296        4.99951
C          8.46245       -0.29384        5.30007
C          7.93560       -1.01336        4.05369
C          6.93116       -2.12759        4.36766
C          6.51898       -2.97716        3.17233
O          7.62737       -3.58432        2.42008
C          8.36181       -4.55627        3.05035
N          9.59038       -4.00156        3.73946
N          9.68199       -3.86597        5.04159
N         10.79947       -3.23066        5.32001
C         11.42671       -2.95027        4.15546
N         10.67893       -3.44213        3.14099
C         10.88553       -3.37970        1.68235
C         10.24889       -2.12986        1.03861
N         10.85222       -0.90967        1.55833
C         12.75469       -2.30105        4.05681
C         13.90784       -3.33443        4.12593
C         15.27642       -2.65266        4.10249
H         11.79374        2.71547        6.84188
H         11.14399        3.02923        5.22307
H         12.23900        1.65821        5.49025
H          9.41606        1.93085        6.72145
H         10.49873        0.56815        6.98030
H         10.43974        0.06620        4.50326
H          9.32219        1.40895        4.26757
H          7.64469        0.27114        5.77717
H          8.78231       -1.04497        6.04259
H          8.79614       -1.43590        3.51090
H          7.47950       -0.28644        3.35943
H          6.00017       -1.69410        4.76956
H          7.32070       -2.76788        5.17520
H          6.01824       -2.37441        2.40365
H          5.83612       -3.78729        3.47433
H          8.72671       -5.27715        2.30564
H          7.84498       -5.08045        3.86951
H         10.48712       -4.30482        1.24571
H         11.97312       -3.38336        1.53981
H          9.17034       -2.14425        1.23943
H         10.37086       -2.25762       -0.05018
H         10.15602       -0.19756        1.76588
H         11.52400       -0.50440        0.90931
H         12.82543       -1.60825        4.90811
H         12.80160       -1.69723        3.14116
H         13.82040       -4.03886        3.28213
H         13.79443       -3.93178        5.04309
H         15.42028       -2.06332        3.18568
H         16.07850       -3.40017        4.14897
H         15.39984       -1.97699        4.96034
