95

C          2.27395       -2.57321        0.12484
C          3.59043       -1.79640        0.04487
C          4.24370       -1.84873       -1.34050
C          5.54019       -1.03953       -1.44572
C          6.18539       -1.09408       -2.83373
C          7.44949       -0.24027       -2.97065
C          8.06904       -0.30294       -4.36887
C          9.35525        0.51285       -4.52103
C          9.93472        0.44019       -5.93532
C         11.25700        1.19183       -6.10773
C         11.79136        1.12278       -7.54195
C         13.23163        1.62037       -7.69801
C         13.79536        1.35781       -9.10498
C         15.33641        1.22781       -9.11493
C         15.93140        0.46245      -10.27022
C         16.84157        1.16357      -11.08823
C         17.46765        0.55237      -12.14731
N         17.18765       -0.74735      -12.38833
C         16.31920       -1.49545      -11.65616
C         15.65009       -0.90638      -10.56360
C         14.63001       -1.76109       -9.83459
C         14.65844       -1.83487       -8.30027
C         13.45046       -2.61680       -7.76361
N         13.25545       -2.31522       -6.35556
C         12.12791       -3.02025       -5.74843
C         11.85668       -2.56172       -4.33351
C         12.73918       -1.74942       -3.61270
C         12.45105       -1.33251       -2.30943
C         11.26230       -1.73826       -1.70166
C         10.36976       -2.55666       -2.39596
C         10.66469       -2.96391       -3.69964
O          9.81845       -3.77106       -4.42202
C         16.13999       -2.91206      -12.13489
C         14.76151       -3.19285      -12.71702
C         14.15435       -4.43604      -12.50200
C         12.89964       -4.71483      -13.04266
C         12.20781       -3.76236      -13.80740
C         12.82138       -2.51636      -14.01135
C         14.07880       -2.23439      -13.47753
C         10.86243       -4.07371      -14.40691
H          1.83831       -2.52722        1.13229
H          2.41844       -3.63462       -0.12650
H          1.52940       -2.16798       -0.57667
H          4.29783       -2.18995        0.79454
H          3.41406       -0.74330        0.32205
H          3.52539       -1.48059       -2.09445
H          4.44442       -2.90164       -1.60839
H          6.26162       -1.39965       -0.69059
H          5.33341        0.01302       -1.18369
H          5.44756       -0.77196       -3.58980
H          6.42485       -2.14443       -3.08376
H          8.19679       -0.55882       -2.22403
H          7.20837        0.80863       -2.72452
H          7.32615        0.04515       -5.10875
H          8.27929       -1.35457       -4.63077
H         10.10663        0.15409       -3.79865
H          9.15624        1.56700       -4.26040
H          9.19392        0.83104       -6.65550
H         10.08822       -0.61940       -6.20659
H         12.00336        0.76438       -5.41388
H         11.13489        2.24546       -5.80476
H         11.12211        1.68146       -8.21798
H         11.74883        0.07254       -7.88559
H         13.86216        1.09916       -6.95574
H         13.30384        2.69013       -7.44519
H         13.49407        2.15116       -9.80519
H         13.33748        0.43726       -9.49039
H         15.65802        0.73112       -8.18584
H         15.79289        2.22683       -9.08540
H         17.06013        2.20993      -10.88008
H         18.17990        1.03803      -12.81103
H         17.65092       -1.21099      -13.17006
H         14.68692       -2.78374      -10.22374
H         13.63204       -1.41468      -10.15545
H         14.61441       -0.83690       -7.85077
H         15.59565       -2.29008       -7.94835
H         13.60954       -3.70256       -7.87218
H         12.55649       -2.37411       -8.38580
H         13.10393       -1.30943       -6.24932
H         12.35570       -4.10151       -5.75129
H         11.19394       -2.91495       -6.34041
H         13.68111       -1.45785       -4.07853
H         13.15759       -0.70200       -1.77010
H         11.02454       -1.42302       -0.68539
H          9.43648       -2.88013       -1.92811
H          9.03773       -3.97030       -3.87972
H         16.33392       -3.60211      -11.29998
H         16.91992       -3.13333      -12.88480
H         14.66431       -5.19487      -11.90421
H         12.44491       -5.69034      -12.86094
H         12.30613       -1.75294      -14.59732
H         14.51919       -1.25054      -13.65699
H         10.97327       -4.44139      -15.43873
H         10.22255       -3.18262      -14.44717
H         10.33708       -4.85065      -13.83758
