47

O          6.78005        1.56952        0.85464
C          7.06517        0.17043        1.06379
C          5.86609       -0.62580        0.54329
C          5.59358       -0.41563       -0.91266
N          5.67479        0.84772       -1.48384
C          5.36471        0.79652       -2.77898
N          5.07306       -0.48347       -3.06385
C          5.20944       -1.28042       -1.91512
C          4.90895       -2.73750       -1.90764
C          3.39508       -3.04141       -1.82696
C          3.04432       -4.54099       -1.82106
C          1.52204       -4.70270       -1.63628
C          1.04770       -6.14205       -1.35367
C         -0.43477       -6.20834       -1.11396
C         -1.37955       -6.68765       -1.94442
C         -1.10304       -7.28286       -3.30031
C         -2.83399       -6.66169       -1.55258
C          3.54961       -5.25542       -3.08276
N          4.71418       -0.86202       -4.36428
H          7.46712        2.10517        1.28105
H          7.20007       -0.03882        2.13581
H          7.98639       -0.11959        0.52973
H          4.97428       -0.34246        1.12686
H          6.03919       -1.69473        0.72784
H          6.00430        1.65087       -0.93298
H          5.34826        1.60995       -3.49426
H          5.42407       -3.19483       -1.05005
H          5.34632       -3.20342       -2.80427
H          2.87321       -2.56037       -2.67471
H          2.99149       -2.56689       -0.91852
H          3.54123       -4.99576       -0.94316
H          1.00307       -4.32879       -2.53631
H          1.19121       -4.05601       -0.80590
H          1.57986       -6.52121       -0.46336
H          1.33264       -6.80255       -2.18453
H         -0.77126       -5.79446       -0.15651
H         -0.04185       -7.27545       -3.57583
H         -1.65774       -6.73698       -4.08029
H         -1.45632       -8.32547       -3.34540
H         -2.98105       -6.22801       -0.55529
H         -3.26101       -7.67759       -1.55184
H         -3.42760       -6.07704       -2.27408
H          3.11461       -4.80605       -3.99026
H          3.26907       -6.31573       -3.07810
H          4.64431       -5.22624       -3.17775
H          5.39338       -1.54134       -4.71560
H          3.79177       -1.30308       -4.34108
