66

C          1.47165       -1.68350        6.37391
C          2.95884       -2.01986        6.50570
C          3.81084       -1.44135        5.36939
C          5.30771       -1.73852        5.52330
C          6.12629       -1.17645        4.37440
O          7.52454       -1.44749        4.60868
C          8.35002       -1.06401        3.50375
C          9.82633       -1.20427        3.88134
C         10.21491       -2.48591        4.67325
C         11.58707       -3.03829        4.27497
C         11.43325       -3.92751        3.04197
N         10.56335       -5.07923        3.39101
C          9.37360       -4.75971        3.99916
N          8.35595       -5.63285        4.07792
C          8.00554       -6.64151        3.07485
C          6.49998       -6.63972        2.76095
C          5.85129       -5.32360        2.32581
C          6.50372       -4.55102        1.13352
Br         6.68944       -5.64183       -0.47154
F          5.80649       -3.43686        0.85140
F          7.75697       -4.13776        1.51458
Br         3.96490       -5.64748        1.91804
F          5.89014       -4.42033        3.39283
N          9.19898       -3.53481        4.48880
C         11.08461       -6.41430        3.45278
O         10.57594       -7.30344        4.09861
O         12.18452       -6.49722        2.69842
C         12.82047       -7.82504        2.64209
C         12.21460       -8.67993        1.54059
C         12.91902      -10.04069        1.43244
C         12.33701      -10.91918        0.32206
H          0.88885       -2.11611        7.19794
H          1.05429       -2.07000        5.43231
H          1.30583       -0.59629        6.38655
H          3.09086       -3.11512        6.53722
H          3.33811       -1.64131        7.46977
H          3.65847       -0.34920        5.32205
H          3.45151       -1.84105        4.40493
H          5.46386       -2.82924        5.58038
H          5.68026       -1.31423        6.46956
H          5.98976       -0.08314        4.28835
H          5.82255       -1.63104        3.41319
H          8.14317       -0.01806        3.21816
H          8.10750       -1.69528        2.62776
H         10.14475       -0.34407        4.48605
H         10.39968       -1.15938        2.94208
H         10.21005       -2.24046        5.74541
H         12.02619       -3.62846        5.09269
H         12.27357       -2.20641        4.06928
H         12.38833       -4.32940        2.70132
H         10.97193       -3.38799        2.20092
H          7.60871       -5.34970        4.70524
H          8.27893       -7.64143        3.44004
H          8.59725       -6.45296        2.16981
H          5.93132       -6.96843        3.64417
H          6.32042       -7.39306        1.98364
H          8.24281       -3.18047        4.65179
H         12.72023       -8.29387        3.62963
H         13.87511       -7.59349        2.44856
H         12.28764       -8.14100        0.58230
H         11.14351       -8.83614        1.74758
H         12.84496      -10.56711        2.39795
H         13.99490       -9.88239        1.25143
H         11.27056      -11.12759        0.49279
H         12.85825      -11.88357        0.26754
H         12.42959      -10.43537       -0.66115
