72

C          0.57171       -1.04482       -0.41110
C          1.40908        0.18835       -0.75636
C          2.50499        0.47527        0.27500
C          3.31436        1.73556       -0.05249
N          4.42983        1.98764        0.87179
C          4.34468        2.64884        2.06368
O          5.33837        2.82505        2.78629
C          2.97792        3.18127        2.50245
C          2.41789        2.74178        3.88573
N          2.63118        3.70508        4.96810
C          4.00780        4.08044        5.32716
C          4.08118        5.56331        5.71249
C          5.48929        6.14101        5.84972
C          6.25005        5.98915        7.22270
C          6.68369        4.57576        7.77855
C          7.61848        3.65825        6.90676
F          8.67368        4.33494        6.44076
F          8.05207        2.63881        7.67287
F          6.94058        3.12739        5.86209
F          7.33709        4.81058        8.94006
F          5.55669        3.84898        8.06881
F          7.37624        6.74032        7.15412
F          5.43647        6.51300        8.18909
F          6.31759        5.66923        4.86167
F          5.39790        7.50053        5.67921
C          1.75722        3.40548        6.09718
C          1.92526        1.97839        6.63671
N          1.77772        0.98837        5.51374
C          2.67772        1.26507        4.30621
C          4.10629        0.83491        4.66213
C          4.22931       -0.55796        5.26760
O          3.22725       -1.11061        5.76777
C          5.54584       -1.21287        5.28995
C          5.64579       -2.50130        5.85809
C          6.87650       -3.14342        5.92013
C          8.02302       -2.50733        5.42563
C          7.93615       -1.22880        4.86378
C          6.70525       -0.58177        4.78930
C          5.73480        1.47544        0.44953
H         -0.20019       -1.22674       -1.16995
H          0.06047       -0.92586        0.55638
H          1.19501       -1.94877       -0.34932
H          0.75224        1.06995       -0.84623
H          1.87189        0.05544       -1.74788
H          3.18786       -0.38717        0.34880
H          2.04427        0.58733        1.27283
H          2.66126        2.61761       -0.10553
H          3.75541        1.63739       -1.05505
H          2.20489        2.95834        1.76110
H          3.06214        4.27775        2.53634
H          1.32028        2.76774        3.73459
H          4.65249        3.89418        4.45832
H          4.39710        3.45758        6.14788
H          3.53527        5.78704        6.64037
H          3.60789        6.15170        4.91371
H          0.70829        3.55545        5.78461
H          1.94313        4.11563        6.91368
H          1.17244        1.72832        7.39567
H          2.91703        1.82018        7.07937
H          0.79928        0.95962        5.20377
H          2.10653        0.00002        5.80076
H          2.29164        0.59250        3.52263
H          4.58420        1.54340        5.35589
H          4.72262        0.90578        3.76095
H          4.74514       -2.97780        6.24455
H          6.94979       -4.13980        6.35625
H          8.98906       -3.01059        5.48101
H          8.83150       -0.73677        4.48375
H          6.65961        0.41648        4.35224
H          6.04655        1.95688       -0.48851
H          5.68406        0.38875        0.28675
H          6.46884        1.69601        1.22862
