59

S          1.07102       -0.65979       -0.39687
C          2.57642       -0.04538       -0.23824
N          3.20275        0.18525        1.00135
C          3.20545       -0.69326        2.08321
N          3.89166       -0.21497        3.09000
C          4.33059        1.03601        2.68879
C          3.93792        1.30181        1.40326
S          3.48166        0.38158       -1.68752
C          5.26153        0.22563       -1.24520
C          6.04187       -0.07861       -2.52736
C          7.53144       -0.32006       -2.22406
N          8.35603       -0.50060       -3.41471
C          8.43829       -1.76565       -4.16274
C          9.49773       -1.47544       -5.25621
N          9.50744        0.02231       -5.25217
C          8.90882        0.48395       -4.14015
N          8.88742        1.78093       -3.80400
C         10.28091        0.84618       -6.13661
C          9.85606        1.01282       -7.45918
C         10.62139        1.79003       -8.33054
C         11.79295        2.40606       -7.87939
C         12.20872        2.24217       -6.55487
C         11.45877        1.45481       -5.67880
C         10.87660       -2.08064       -4.95522
C         11.85843       -2.11399       -6.14520
C         13.23073       -2.57455       -5.70931
C         13.56549       -3.93546       -5.69137
C         14.81847       -4.35538       -5.23821
C         15.75380       -3.41753       -4.79393
C         15.43318       -2.05735       -4.81170
C         14.18047       -1.64157       -5.26731
H          2.70301       -1.65430        2.02570
H          4.88550        1.68213        3.36255
H          4.02137        2.18031        0.77432
H          5.35606       -0.59322       -0.51848
H          5.62406        1.14648       -0.76871
H          5.94015        0.75707       -3.23933
H          5.61514       -0.96488       -3.02058
H          7.65668       -1.22060       -1.60527
H          7.95544        0.50694       -1.63222
H          7.45747       -2.02263       -4.59317
H          8.75450       -2.57820       -3.49518
H          9.13849       -1.81472       -6.23839
H          9.35024        2.45328       -4.40601
H          8.29705        2.12251       -3.05842
H          8.93610        0.53501       -7.79781
H         10.29800        1.92054       -9.36316
H         12.38495        3.01377       -8.56372
H         13.12692        2.71439       -6.20549
H         11.79656        1.28697       -4.65496
H         10.71739       -3.11444       -4.60927
H         11.32964       -1.54273       -4.10597
H         11.94157       -1.12040       -6.60554
H         11.45832       -2.78763       -6.91945
H         12.84295       -4.67448       -6.04607
H         15.06731       -5.41715       -5.23857
H         16.73338       -3.74406       -4.44389
H         16.16422       -1.31970       -4.47837
H         13.93935       -0.57566       -5.29393
