61

F          2.06775       -0.17941       -0.65340
C          0.94966        0.36245       -0.08443
C          0.14328       -0.45121        0.60671
F         -0.96642       -0.03170        1.20572
F          0.34332       -1.74347        0.77011
C          0.77817        1.82240       -0.31609
C          1.85566        2.64755        0.42797
C          1.99702        4.13230        0.08420
C          0.73721        4.95703       -0.14965
C          1.25578        6.33452       -0.62150
C          2.61477        6.01590       -1.29644
N          2.86032        4.51193       -1.15187
C          2.64556        3.73027       -2.44420
C          3.51689        2.48120       -2.52095
C          3.20618        1.64976       -3.77095
C          4.11822        0.41168       -3.86935
N          3.75949       -0.45617       -4.97006
C          2.86725       -1.50838       -4.89091
C          2.67866       -2.00651       -6.16519
C          3.47375       -1.22474       -7.05036
C          4.12555       -0.27331       -6.28979
C          1.43490        7.35053        0.52159
C          0.12836        7.87269        1.12867
C          0.39552        8.71219        2.38410
C         -0.88739        9.25459        3.01848
S         -0.50008       10.03877        4.59701
O         -0.12091        9.01463        5.55128
O          0.33973       11.18051        4.33901
O         -1.96235       10.60152        5.02430
H         -0.22604        2.11737        0.01612
H          0.80804        1.98869       -1.40445
H          2.83561        2.15412        0.35323
H          1.61230        2.62248        1.50120
H          2.56806        4.59681        0.90441
H          0.14724        5.02439        0.77293
H          0.09122        4.48959       -0.90676
H          0.56944        6.75660       -1.36875
H          3.44538        6.52654       -0.79207
H          2.65137        6.26530       -2.36139
H          3.84612        4.36815       -0.90140
H          2.90064        4.41825       -3.26064
H          1.57356        3.51253       -2.52371
H          3.37985        1.84531       -1.63611
H          4.57773        2.78900       -2.53057
H          3.31805        2.25710       -4.68278
H          2.15920        1.30837       -3.74289
H          4.05652       -0.17292       -2.93899
H          5.16853        0.72119       -3.98799
H          2.46688       -1.82338       -3.93204
H          2.05478       -2.85453       -6.42805
H          3.57542       -1.35758       -8.12237
H          4.83206        0.50178       -6.56966
H          2.02102        8.20518        0.14589
H          2.05112        6.89508        1.31884
H         -0.53542        7.03223        1.39332
H         -0.41558        8.46826        0.37694
H          1.06132        9.55419        2.14177
H          0.92716        8.09313        3.12456
H         -1.61291        8.45943        3.24111
H         -1.37318       10.02196        2.40017
H         -2.25706       10.08154        5.79662
