40

C          8.87268        2.73275       -0.80056
C          7.72576        1.87772       -0.30275
O          6.44928        2.24734       -0.94961
C          6.12520        1.58374       -2.08621
O          6.80316        0.75456       -2.64170
C          4.69936        1.95707       -2.52934
N          4.40351        3.42672       -2.21966
Si         5.10226        4.70326       -3.54315
C          6.85016        4.12441       -3.85051
C          4.02334        4.67640       -5.07297
C          5.17651        6.34554       -2.65208
N          2.98077        3.49943       -1.79697
C          2.90040        3.14383       -0.37293
C          2.34717        4.80200       -2.02325
C          4.35498        1.52556       -3.94350
H          9.77937        2.47281       -0.23703
H          8.67912        3.80215       -0.63938
H          9.07939        2.55204       -1.86290
H          7.52459        2.03429        0.76333
H          7.89472        0.81138       -0.49562
H          4.04612        1.40036       -1.84032
H          4.99602        3.63285       -1.39010
H          6.94794        3.12561       -4.29016
H          7.46963        4.18151       -2.94755
H          7.26942        4.84080       -4.57529
H          4.57390        4.23161       -5.91247
H          3.75957        5.70677       -5.35074
H          3.09066        4.11326       -4.95257
H          5.57537        6.25564       -1.63185
H          4.22343        6.88341       -2.61152
H          5.88619        6.97201       -3.21489
H          3.32435        2.14983       -0.18418
H          1.83969        3.10637       -0.09943
H          3.40778        3.88192        0.27986
H          2.41273        5.09291       -3.07628
H          2.73645        5.61108       -1.37953
H          1.28307        4.66652       -1.79378
H          5.00693        1.97015       -4.70376
H          3.30843        1.76217       -4.16726
H          4.48022        0.43908       -4.01117
