64

C          0.93130       -1.05064       -0.83974
C          2.45831       -0.95200       -0.79058
C          3.02052        0.16816       -1.67290
C          4.54760        0.28907       -1.62620
C          5.09093        1.41551       -2.51118
C          6.61549        1.56674       -2.46807
C          7.12746        2.69924       -3.36464
C          8.65089        2.86795       -3.35236
C          9.13187        3.98798       -4.28132
C         10.65602        4.16210       -4.30254
C         11.11965        5.21824       -5.31665
C         12.62182        5.49485       -5.31354
N         13.45046        4.22792       -5.45388
C         13.33740        3.60784       -6.82513
C         13.61757        2.10611       -6.77724
C         13.32815        1.44225       -8.12046
F         12.02397        1.59483       -8.47061
F         14.08272        1.98443       -9.10954
F         13.59367        0.12282       -8.06416
C         14.89427        4.42482       -5.00514
C         15.02982        4.44391       -3.48995
C         14.44987        3.20950       -2.78410
C         14.95741        3.09260       -1.33443
N         16.41380        2.94216       -1.32294
H          0.55878       -1.86201       -0.19969
H          0.57566       -1.24507       -1.86261
H          0.45955       -0.11669       -0.49946
H          2.90045       -1.91429       -1.09998
H          2.78426       -0.79153        0.25110
H          2.57068        1.12993       -1.36866
H          2.69945        0.00425       -2.71690
H          5.00078       -0.67010       -1.93326
H          4.86928        0.45474       -0.58286
H          4.62425        2.36995       -2.21027
H          4.77363        1.24243       -3.55463
H          7.08753        0.61559       -2.77171
H          6.93762        1.74645       -1.42729
H          6.65542        3.64831       -3.05656
H          6.79282        2.51935       -4.40128
H          9.12579        1.91594       -3.65058
H          8.99174        3.06937       -2.32167
H          8.66761        4.94294       -3.98290
H          8.77943        3.78624       -5.30742
H         11.09881        3.17313       -4.53849
H         11.01295        4.42834       -3.29181
H         10.63406        6.18088       -5.09364
H         10.77228        4.94763       -6.32620
H         12.93103        5.94654       -4.36241
H         12.92935        6.16326       -6.12924
H         13.03531        3.55675       -4.78710
H         14.03306        4.14254       -7.48497
H         12.31643        3.78767       -7.18116
H         12.97264        1.61167       -6.03480
H         14.66237        1.87969       -6.52600
H         15.24447        5.35169       -5.47940
H         15.46621        3.58833       -5.42711
H         14.60170        5.36514       -3.06432
H         16.10783        4.47843       -3.26547
H         14.74148        2.29264       -3.32928
H         13.34509        3.22948       -2.75831
H         14.41275        2.27231       -0.83299
H         14.70317        4.01536       -0.79071
H         16.68597        1.96792       -1.45498
H         16.81043        3.23907       -0.43310
