55

C          1.03647        1.53941       -0.22452
C          2.40407        0.86609       -0.36808
C          2.89533        0.22338        0.93360
C          4.23435       -0.50866        0.79535
C          4.72575       -1.10150        2.12024
C          6.01973       -1.91711        1.97860
C          6.47156       -2.43552        3.34357
S          7.92554       -3.54014        3.10512
C          8.11802       -4.11822        4.70054
N          7.44659       -3.79182        5.80700
N          7.96046       -4.54837        6.80868
C          8.91383       -5.29704        6.29326
O          9.06862       -5.07402        4.94486
C          9.71313       -6.31106        6.91739
N          9.66596       -6.62695        8.20756
C          8.87166       -5.95702        9.24642
C          7.54536       -6.64095        9.54536
C          6.73038       -7.34316        8.54922
O          7.52895       -8.07389        9.50769
C         10.60192       -7.68919        8.61918
C         11.11626       -8.42540        7.36318
S         10.81049       -7.23522        5.96559
C         10.48612       -9.77125        7.09339
C          9.12311       -9.92594        6.80857
C          8.61981      -11.21278        6.61663
N          9.37092      -12.32207        6.68521
C         10.67305      -12.16775        6.95508
C         11.27696      -10.92290        7.16286
H          0.71966        2.00971       -1.16504
H          1.05405        2.32210        0.54870
H          0.26193        0.81146        0.05988
H          3.14780        1.60527       -0.71047
H          2.35580        0.09786       -1.15849
H          2.13150       -0.48424        1.30125
H          2.98277        1.00206        1.71189
H          4.99676        0.18405        0.39932
H          4.13593       -1.31374        0.04646
H          3.93911       -1.74722        2.54672
H          4.88271       -0.28845        2.84935
H          6.81075       -1.29476        1.52939
H          5.84868       -2.76226        1.29183
H          5.69125       -3.03229        3.83318
H          6.77354       -1.62368        4.01736
H          8.68424       -4.91863        8.94636
H          9.49204       -5.95533       10.15525
H          7.03800       -6.19326       10.40840
H          7.06553       -7.41550        7.51044
H          5.64974       -7.41057        8.69645
H         10.07033       -8.38172        9.28551
H         11.43034       -7.21755        9.17218
H         12.20602       -8.53775        7.42114
H          8.45288       -9.06991        6.72597
H          7.56019      -11.36158        6.39264
H         11.26867      -13.08321        7.00383
H         12.34606      -10.86184        7.37626
