45

C          5.91831        6.55132       -7.16460
C          5.57195        5.47300       -6.45246
C          6.05361        5.29468       -5.06182
O          6.79858        6.04497       -4.45423
O          5.54056        4.14479       -4.52619
C          5.89155        3.88357       -3.14759
C          7.30719        3.32750       -3.01279
C          7.65202        2.99460       -1.55569
C          9.14744        2.71903       -1.32535
C         10.00092        3.99466       -1.39993
C         11.47894        3.78894       -1.09687
N         12.16990        2.83081       -2.05908
C         12.25299        3.35854       -3.47880
C         12.80996        2.29288       -4.41285
O         12.11519        1.09660       -4.08501
C         12.48946       -0.04932       -4.84729
C         12.10586       -1.28181       -4.03122
F         10.78132       -1.31052       -3.76015
F         12.43223       -2.39824       -4.70779
F         12.76520       -1.29461       -2.83963
N         13.41286        2.39474       -1.46374
H          5.56213        6.69850       -8.18349
H          6.56360        7.31637       -6.72972
H          4.91959        4.69579       -6.85219
H          5.14033        3.15976       -2.80477
H          5.79038        4.81504       -2.57111
H          7.99630        4.08528       -3.41340
H          7.40544        2.42490       -3.63700
H          7.07423        2.11657       -1.23061
H          7.34384        3.82447       -0.89732
H          9.47885        1.97116       -2.07155
H          9.28714        2.25427       -0.33592
H          9.64683        4.70565       -0.63635
H          9.86219        4.51481       -2.35946
H         11.63037        3.33001       -0.11158
H         12.04922        4.72761       -1.14041
H         11.59411        1.97303       -2.11551
H         12.87430        4.26352       -3.46628
H         11.22823        3.62550       -3.76552
H         13.90084        2.15969       -4.28648
H         12.63049        2.61029       -5.45495
H         13.57762       -0.08397       -5.02126
H         11.96129       -0.07894       -5.81378
H         14.08111        3.16876       -1.52524
H         13.76681        1.60870       -2.01674
