83

C          2.02152        4.23216        2.46644
C          2.80890        3.35462        3.09861
C          4.09616        3.77429        3.70182
O          4.57615        4.89572        3.66813
O          4.68799        2.71530        4.32628
C          5.95529        2.97297        4.97669
C          7.13300        2.69483        4.04826
C          8.46929        2.93812        4.75570
C          9.68450        2.59434        3.88823
C         10.99203        3.03302        4.54943
C         12.22046        2.73904        3.65754
C         13.51084        3.26212        4.18199
N         14.40087        2.61303        4.97498
C         15.47829        3.44159        5.23382
C         15.24682        4.61533        4.58591
N         14.03280        4.49008        3.93538
C         13.41837        5.57410        3.14951
C         12.68717        6.58489        4.03683
C         12.07781        7.70922        3.19055
S         10.74124        8.59353        4.03115
C          9.35444        7.47360        3.77364
S          9.48079        6.08748        2.84743
N          8.21585        7.88621        4.37631
C          8.06446        9.19161        5.03600
C          7.19035        9.06695        6.28578
O          5.93952        8.46248        6.00316
C          6.12846        7.15518        5.46236
C          6.93952        7.17889        4.17250
C         14.24586        1.28173        5.57533
C         13.95009        1.37099        7.08184
O         12.75949        2.14085        7.17314
C         12.54579        2.85263        8.40994
C         11.49689        3.89653        8.13735
C         11.85990        5.13709        7.59282
C         10.88449        6.07864        7.26012
C          9.53391        5.78080        7.46134
C          9.16196        4.55119        8.00926
C         10.14086        3.61444        8.34817
C         13.82209       -0.02060        7.69959
H          1.07133        3.92970        2.02811
H          2.31548        5.27917        2.37778
H          2.53888        2.30348        3.20511
H          5.96442        2.29522        5.84162
H          5.96844        4.01306        5.33198
H          7.06048        3.34852        3.16495
H          7.06783        1.65547        3.68865
H          8.51401        2.35900        5.69402
H          8.53608        3.99864        5.04805
H          9.58206        3.09489        2.91100
H          9.70469        1.50992        3.68286
H         11.12976        2.53843        5.51898
H         10.94136        4.11228        4.75365
H         12.05806        3.17365        2.65918
H         12.31906        1.65485        3.49714
H         16.31697        3.12258        5.83987
H         15.84379        5.51631        4.51710
H         12.71066        5.12686        2.44024
H         14.22486        6.04116        2.56677
H         13.37000        6.99905        4.79430
H         11.88546        6.05686        4.56774
H         11.65024        7.31486        2.25647
H         12.81292        8.48991        2.94698
H          7.60661        9.90051        4.32476
H          9.04776        9.58260        5.32597
H          6.97806       10.06723        6.68580
H          7.73020        8.48973        7.06344
H          5.13530        6.74309        5.25230
H          6.62818        6.50922        6.21229
H          6.37172        7.69403        3.37937
H          7.15394        6.16359        3.82496
H         15.16607        0.71210        5.38921
H         13.41810        0.77212        5.06801
H         14.77811        1.91928        7.57650
H         13.49594        3.31882        8.72908
H         12.21753        2.15837        9.20231
H         12.91655        5.36442        7.43046
H         11.16889        7.04504        6.84203
H          8.77217        6.51191        7.19285
H          8.10834        4.32090        8.17224
H          9.85101        2.65266        8.77614
H         12.99860       -0.57833        7.23249
H         13.61759        0.05406        8.77476
H         14.75040       -0.59678        7.58014
