78

C          2.57048        3.52466       -0.81289
C          3.71687        2.53965       -0.92901
O          4.56381        2.63732        0.25638
P          4.85458        1.40944        1.24079
O          5.46759        1.87019        2.50799
O          3.48929        0.56333        1.35879
C          2.42824        1.05038        2.24675
C          2.45015        0.30307        3.56580
C          5.91793        0.23302        0.33939
C          6.39578       -0.88386        1.28296
C          7.78977       -1.39920        0.91022
N          8.30952       -2.34334        1.91299
C          8.24295       -3.72566        1.81279
C          8.76308       -4.25892        2.96567
N          9.12112       -3.16112        3.73150
C          8.84921       -2.00238        3.10178
C          9.07807       -0.62955        3.63890
C         10.10138       -0.58578        4.78414
O         11.30435       -1.10892        4.22015
C         12.30117       -1.52752        5.17185
C         13.45941       -2.11481        4.41330
C         13.32705       -3.34268        3.74835
C         14.39257       -3.87953        3.02635
C         15.60971       -3.19236        2.96354
C         15.75211       -1.96921        3.62223
C         14.67996       -1.43286        4.34071
C         10.25466        0.83007        5.33777
C          8.92468       -5.69048        3.42645
C          7.49226       -6.26089        3.75719
C          7.50117       -7.74104        4.16871
C          6.74481       -5.42345        4.80576
C          9.59658       -6.49002        2.26778
O          8.82031       -6.54978        1.07377
C          9.88221       -5.76940        4.63105
H          1.97632        3.51508       -1.73749
H          2.94737        4.54347       -0.65667
H          1.90691        3.26645        0.02263
H          4.36349        2.77527       -1.78642
H          3.34625        1.50940       -1.04029
H          1.49445        0.87999        1.69405
H          2.54843        2.13328        2.40038
H          2.35101       -0.77870        3.40456
H          1.60916        0.63334        4.19179
H          3.38294        0.50289        4.10840
H          6.76540        0.84858       -0.00341
H          5.41494       -0.15851       -0.55545
H          5.67714       -1.71576        1.29187
H          6.43201       -0.48147        2.30643
H          8.50261       -0.56592        0.83338
H          7.79549       -1.92330       -0.05430
H          7.85618       -4.22312        0.93288
H          9.59385       -3.21206        4.62822
H          8.12068       -0.19592        3.97283
H          9.44209        0.01694        2.82484
H          9.76269       -1.24816        5.61343
H         11.85345       -2.27636        5.85868
H         12.64159       -0.67709        5.78578
H         12.37702       -3.88006        3.79363
H         14.28029       -4.83688        2.51570
H         16.44545       -3.61319        2.40377
H         16.69889       -1.43024        3.57650
H         14.79252       -0.47482        4.85262
H         10.60623        1.51354        4.55304
H         10.97507        0.85295        6.16467
H          9.29731        1.20412        5.72633
H          6.92693       -6.17884        2.81350
H          7.99968       -7.89922        5.13563
H          7.98969       -8.39393        3.43236
H          6.46860       -8.09814        4.27858
H          7.23087       -5.46549        5.79190
H          5.72582       -5.81028        4.93734
H          6.65423       -4.36817        4.51287
H          9.85213       -7.49838        2.62781
H         10.53888       -5.98839        2.00025
H          8.26764       -7.34538        1.09633
H          9.50245       -5.23923        5.51626
H         10.87606       -5.36878        4.38447
H         10.02765       -6.81316        4.93392
