83

C         11.88897        4.93548       -6.08200
C         11.75208        4.01039       -4.87021
C         11.80779        2.52269       -5.23516
C         11.71886        1.58854       -4.02394
C         11.69147        0.10322       -4.39900
C         11.72852       -0.83737       -3.18979
C         11.62242       -2.31687       -3.57421
C         11.81950       -3.27183       -2.39211
C         11.69489       -4.74708       -2.79075
C         12.09411       -5.68321       -1.64663
N         11.98291       -7.10881       -2.00470
C         10.95452       -7.99887       -1.71715
C          9.74019       -7.68988       -0.91675
C         10.05963       -7.55107        0.58052
O         11.15245       -7.22443        1.00446
O          8.97187       -7.81900        1.30455
C          9.08607       -7.66114        2.76500
C          8.74094       -6.24647        3.20264
C          7.32606       -5.79061        2.82531
C          6.99544       -4.39093        3.34795
N         11.20876       -9.18329       -2.21482
N         12.41865       -9.05929       -2.85206
C         12.89533       -7.81009       -2.72649
N         14.07912       -7.33822       -3.17317
C         13.04570      -10.22053       -3.50058
C         14.27201      -10.75560       -2.75189
C         14.00428      -11.17015       -1.30179
C         15.25399      -11.73175       -0.61478
C         15.02431      -12.12837        0.84678
C         16.28079      -12.68145        1.52691
C         16.06624      -13.07709        2.99201
C         17.33069      -13.62464        3.65871
H         11.85023        5.99306       -5.78763
H         11.08099        4.76455       -6.80869
H         12.84283        4.77142       -6.60481
H         10.80117        4.21971       -4.35121
H         12.54927        4.23558       -4.14142
H         12.74438        2.31719       -5.78369
H         10.98998        2.29030       -5.94046
H         10.81475        1.83136       -3.43823
H         12.57368        1.78202       -3.35184
H         12.54894       -0.12366       -5.05724
H         10.78794       -0.10358       -4.99915
H         10.91207       -0.57993       -2.49334
H         12.66656       -0.67140       -2.63140
H         12.37685       -2.54551       -4.34797
H         10.64189       -2.50567       -4.04422
H         11.08893       -3.04413       -1.59773
H         12.81438       -3.09409       -1.94743
H         12.32607       -4.93981       -3.67636
H         10.66274       -4.97354       -3.10393
H         11.47786       -5.53561       -0.75288
H         13.13136       -5.51016       -1.32020
H          9.00861       -8.49085       -1.07420
H          9.26827       -6.75179       -1.25094
H         10.10383       -7.94474        3.05969
H          8.36725       -8.39419        3.15222
H          9.49279       -5.54554        2.80391
H          8.86104       -6.22210        4.29926
H          6.59537       -6.51639        3.21984
H          7.21180       -5.81408        1.72963
H          7.05504       -4.34882        4.44507
H          5.98084       -4.08711        3.05913
H          7.69310       -3.63865        2.95085
H         14.64742       -7.92618       -3.77069
H         14.20105       -6.33926       -3.28941
H         13.29205       -9.93711       -4.53629
H         12.24665      -10.97057       -3.54482
H         15.09350      -10.01880       -2.77874
H         14.63519      -11.61867       -3.33261
H         13.19506      -11.91957       -1.27849
H         13.63262      -10.30522       -0.72579
H         16.06443      -10.98305       -0.66529
H         15.61734      -12.60778       -1.17930
H         14.21759      -12.88007        0.89908
H         14.65862      -11.25164        1.41001
H         17.08832      -11.93019        1.46802
H         16.64468      -13.55844        0.96311
H         15.26179      -13.82968        3.05041
H         15.70157      -12.20082        3.55471
H         17.70177      -14.51962        3.13761
H         17.14517      -13.90416        4.70459
H         18.14065      -12.88012        3.65280
