107

C          0.84375       -1.96981       -0.92293
C          2.35934       -1.76764       -0.84674
C          2.91045       -0.87033       -1.96074
C          4.42633       -0.66107       -1.89003
C          4.97666        0.24413       -2.99689
C          6.49351        0.44659       -2.92693
C          7.04677        1.35323       -4.03092
C          8.56554        1.54271       -3.96569
C          9.12105        2.45018       -5.06773
C         10.64433        2.60650       -5.02539
C         11.19881        3.52454       -6.11896
C         12.72703        3.62917       -6.11821
C         13.27938        4.55859       -7.20324
C         14.80992        4.59402       -7.26035
C         15.35916        5.52841       -8.34273
C         16.88708        5.50654       -8.45416
C         17.42504        6.44071       -9.54291
C         18.94733        6.37858       -9.70500
C         19.44889        7.29631      -10.82257
C         20.98284        7.18914      -11.03416
C         21.40776        7.91656      -12.27563
C         21.43986        9.31553      -12.24659
N         21.74095        9.99098      -13.35710
N         22.02249        9.47453      -14.54222
C         22.00972        8.13621      -14.63118
C         21.71822        7.30626      -13.50602
C         21.71524        5.81166      -13.63645
C         20.28213        5.25323      -13.69457
O         19.30148        5.93883      -13.90841
O         20.30100        3.93430      -13.48554
C         19.00888        3.23311      -13.57743
C         18.67872        2.85966      -15.01373
C         17.40462        2.00816      -15.09466
C         17.01890        1.64810      -16.53329
C         15.76626        0.77025      -16.62688
C         15.39017        0.41118      -18.06610
C         22.31339        7.61979      -16.00763
C         21.08120        7.08970      -16.80181
C         19.95008        8.12233      -16.86268
C         21.54584        6.66523      -18.20033
H          0.48058       -2.61604       -0.11180
H          0.55045       -2.43617       -1.87548
H          0.30893       -1.01105       -0.84819
H          2.86486       -2.74752       -0.88755
H          2.62482       -1.33325        0.13212
H          2.40405        0.11055       -1.92117
H          2.64673       -1.30441       -2.94165
H          4.93222       -1.64180       -1.93656
H          4.68981       -0.23406       -0.90615
H          4.47469        1.22666       -2.94764
H          4.71046       -0.17989       -3.98135
H          6.99457       -0.53636       -2.97825
H          6.76022        0.86804       -1.94158
H          6.55264        2.33937       -3.97530
H          6.77410        0.93601       -5.01652
H          9.05760        0.55564       -4.02465
H          8.84036        1.95647       -2.97938
H          8.64858        3.44566       -4.99369
H          8.82458        2.04985       -6.05349
H         11.11330        1.61042       -5.11420
H         10.94619        2.99310       -4.03604
H         10.76189        4.53246       -6.00592
H         10.86175        3.16033       -7.10572
H         13.15852        2.62088       -6.24915
H         13.07167        3.97686       -5.12847
H         12.89371        5.58050       -7.04134
H         12.88850        4.24221       -8.18663
H         15.18933        3.57166       -7.43515
H         15.20853        4.89867       -6.27683
H         15.02078        6.56010       -8.14241
H         14.92140        5.25233       -9.31839
H         17.22179        4.47467       -8.66099
H         17.33287        5.77952       -7.48198
H         17.12150        7.47795       -9.31807
H         16.94988        6.18925      -10.50729
H         19.24834        5.34012       -9.92906
H         19.43884        6.64048       -8.75247
H         19.18710        8.34321      -10.59291
H         18.93983        7.04808      -11.76521
H         21.27008        6.13145      -11.08847
H         21.50601        7.61247      -10.16245
H         21.22949        9.90760      -11.35601
H         21.77159       11.01310      -13.34389
H         22.24440        5.33797      -12.79842
H         22.22987        5.48800      -14.55009
H         18.23801        3.87767      -13.13364
H         19.15694        2.34695      -12.94800
H         19.52791        2.30550      -15.44467
H         18.54999        3.77732      -15.60953
H         16.56877        2.54841      -14.61741
H         17.54404        1.08237      -14.51038
H         17.86425        1.12978      -17.01905
H         16.85958        2.57545      -17.11115
H         14.92215        1.28963      -16.14250
H         15.92674       -0.15297      -16.04514
H         15.19021        1.31222      -18.66476
H         14.48914       -0.21564      -18.10041
H         16.19893       -0.14393      -18.56411
H         23.07393        6.82558      -15.94575
H         22.76305        8.45093      -16.56897
H         20.69195        6.19624      -16.28776
H         20.29531        9.06994      -17.30347
H         19.53118        8.33449      -15.86909
H         19.12736        7.74677      -17.48509
H         21.92964        7.52498      -18.76971
H         20.71010        6.23659      -18.76907
H         22.34248        5.90906      -18.15450
