59

C          2.58650       -6.81294        2.27797
C          3.95221       -6.39386        1.72799
C          3.94742       -4.99916        1.09239
C          5.31684       -4.56351        0.56013
C          5.29059       -3.19667       -0.13567
C          6.65289       -2.69509       -0.58100
O          7.20383       -3.64257       -1.52287
C          8.53124       -3.37188       -1.93673
C          9.07366       -4.66286       -2.58972
C          8.28991       -4.97489       -3.88208
C          8.41849       -6.42811       -4.34981
C          7.90213       -7.37419       -3.26270
C          8.64983       -7.22476       -1.93445
N          8.73370       -5.74655       -1.54667
C         10.04071       -7.87720       -1.88053
C         10.60476       -8.09447       -0.46501
O         10.52189       -6.80825        0.21708
C          9.89647       -9.18008        0.33713
C         10.58123       -4.55244       -2.87774
C         11.50126       -4.25247       -1.68369
C         12.95289       -4.57811       -1.98948
F         13.41847       -3.90007       -3.06693
F         13.74953       -4.28257       -0.93706
F         13.11290       -5.91117       -2.25605
H          2.62156       -7.81927        2.71592
H          1.82193       -6.82073        1.48761
H          2.24405       -6.12238        3.06202
H          4.28840       -7.13040        0.97709
H          4.70069       -6.42193        2.53822
H          3.59477       -4.26011        1.83202
H          3.21228       -4.97589        0.26948
H          5.67917       -5.33127       -0.14811
H          6.04359       -4.53942        1.39226
H          4.87292       -2.43954        0.54770
H          4.61635       -3.22782       -1.00660
H          7.34577       -2.60371        0.27736
H          6.57604       -1.70748       -1.06685
H          9.14779       -3.07588       -1.06673
H          8.57352       -2.55129       -2.67569
H          8.64354       -4.27990       -4.65676
H          7.22747       -4.74286       -3.71298
H          9.45708       -6.67157       -4.62290
H          7.82741       -6.56458       -5.26495
H          7.97302       -8.42428       -3.57763
H          6.83173       -7.17348       -3.09229
H          8.03187       -7.65864       -1.13383
H          9.38980       -5.72023       -0.73966
H          7.80811       -5.42159       -1.19717
H         10.76859       -7.30991       -2.47411
H          9.96372       -8.86264       -2.36131
H         11.67028       -8.35733       -0.57272
H         10.83574       -6.91276        1.12939
H          8.82740       -8.96603        0.47707
H         10.34971       -9.28230        1.33350
H          9.99480      -10.15336       -0.16299
H         10.68930       -3.75237       -3.62474
H         10.91908       -5.46541       -3.38428
H         11.25540       -4.85576       -0.79848
H         11.46467       -3.19436       -1.39226
