73

Br         1.08500       -0.26738        0.85334
C          3.00331       -0.30542        0.45512
C          3.36770        0.76706       -0.56390
C          4.87867        0.76694       -0.84265
C          5.39642        1.83655       -1.83817
C          4.80976        1.66561       -3.25780
C          5.20296        2.73740       -4.28083
C          4.60621        2.47847       -5.67019
C          5.07457        3.49317       -6.71875
C          4.48725        3.25362       -8.11366
C          5.03314        4.21586       -9.17436
C          4.44320        3.99096      -10.57041
C          5.05800        4.89263      -11.64629
C          4.44571        4.68874      -13.03581
C          5.12524        5.51500      -14.13259
C          4.48567        5.33042      -15.51128
C          5.22799        6.09629      -16.61403
N          4.61624        5.94617      -17.92873
C          4.79747        4.87513      -18.77555
C          3.96582        5.04131      -19.87328
C          3.25181        6.25147      -19.68028
C          3.66892        6.78594      -18.46995
C          6.95637        1.81189       -1.85406
S          7.57812        3.30209       -0.98315
C          6.00878        3.97511       -0.86582
N          5.05424        3.18738       -1.32003
C          5.75051        5.34316       -0.32729
C          6.73560        5.80998        0.76011
C          6.42844        7.23130        1.23493
H          3.21239       -1.31623        0.08729
H          3.50947       -0.15751        1.41593
H          3.04401        1.74283       -0.16615
H          2.79502        0.59081       -1.48555
H          5.18206       -0.21420       -1.24233
H          5.42388        0.89986        0.10687
H          3.71153        1.62389       -3.18108
H          5.11817        0.66954       -3.61510
H          6.30062        2.79619       -4.37745
H          4.87965        3.73209       -3.92908
H          3.50468        2.48979       -5.60556
H          4.87991        1.46138       -5.99970
H          6.17687        3.46442       -6.77997
H          4.81704        4.51358       -6.38427
H          3.38761        3.33859       -8.06841
H          4.69751        2.21520       -8.42406
H          6.13162        4.11295       -9.22306
H          4.84173        5.25692       -8.85996
H          3.35136        4.15049      -10.53635
H          4.58459        2.93492      -10.86011
H          6.14540        4.70666      -11.69571
H          4.94623        5.95015      -11.34889
H          3.37079        4.93711      -13.00196
H          4.49925        3.61930      -13.30473
H          6.19361        5.23973      -14.18204
H          5.10181        6.58366      -13.85538
H          3.43576        5.66491      -15.49061
H          4.46378        4.26046      -15.77543
H          6.27186        5.75318      -16.68128
H          5.26092        7.17105      -16.38132
H          5.50662        4.09006      -18.53302
H          3.89580        4.36917      -20.72231
H          2.52451        6.69613      -20.35154
H          3.37903        7.69786      -17.95753
H          7.36360        1.83277       -2.87121
H          7.34736        0.93017       -1.33395
H          4.08068        3.48635       -1.29063
H          4.71336        5.38567        0.04445
H          5.79737        6.03957       -1.18556
H          7.76265        5.76750        0.36142
H          6.69802        5.10903        1.60782
H          6.48829        7.95431        0.40898
H          7.14511        7.54398        2.00411
H          5.42195        7.30056        1.67188
