88

C          1.08276       10.12993      -11.87129
C          2.60866       10.13411      -11.75813
C          3.11446        9.69911      -10.37904
C          4.64127        9.69782      -10.26000
C          5.15288        9.25066       -8.88717
C          6.68092        9.23677       -8.78346
C          7.20352        8.78717       -7.41575
C          8.73270        8.76459       -7.33101
C          9.26790        8.32196       -5.96578
C         10.79817        8.30413       -5.89848
C         11.34316        7.87505       -4.53192
C         12.87580        7.87086       -4.48396
C         13.39528        7.46790       -3.10244
N         14.87301        7.49739       -3.02136
C         15.63659        8.59133       -2.70238
N         16.91816        8.31645       -2.74534
N         16.96839        7.00460       -3.10979
C         15.74021        6.48547       -3.28595
C         15.39502        5.07984       -3.64224
C         15.29475        4.16080       -2.41174
O         14.23783        4.64940       -1.60451
C         14.07802        3.93977       -0.35837
C         14.96055        4.53271        0.74700
O         14.90520        3.75249        1.93263
C         18.28333        6.35614       -3.25729
C         19.09865        6.93013       -4.42169
C         20.45017        6.21194       -4.51820
P         21.58874        6.81509       -5.80890
O         22.85954        6.06316       -5.91356
O         20.61354        6.76556       -7.08705
C         21.18543        6.97866       -8.42135
C         21.37614        5.65700       -9.13837
O         21.75257        8.37838       -5.45659
C         23.06555        9.03000       -5.46963
C         23.18871        9.92427       -4.25389
H          0.75100       10.44135      -12.87118
H          0.62775       10.81532      -11.14097
H          0.67285        9.12674      -11.68207
H          2.99326       11.14320      -11.98297
H          3.03754        9.46884      -12.52632
H          2.72965        8.68895      -10.15330
H          2.68757       10.36441       -9.60799
H          5.02449       10.70999      -10.47902
H          5.06559        9.03898      -11.03808
H          4.76297        8.24207       -8.66333
H          4.73917        9.91521       -8.10835
H          7.07046       10.24530       -9.00775
H          7.09151        8.57354       -9.56502
H          6.81002        7.78146       -7.18647
H          6.80361        9.45536       -6.63319
H          9.12526        9.76927       -7.56672
H          9.12996        8.09313       -8.11235
H          8.87892        7.31678       -5.72763
H          8.87551        8.99427       -5.18316
H         11.18581        9.30778       -6.14480
H         11.19000        7.62596       -6.67645
H         10.96321        6.86978       -4.28169
H         10.95422        8.55336       -3.75319
H         13.25986        8.87148       -4.74131
H         13.27172        7.17798       -5.24513
H         13.07803        6.45977       -2.80875
H         13.03360        8.16018       -2.32944
H         15.22143        9.55875       -2.43803
H         16.15044        4.68202       -4.33329
H         14.43539        5.07100       -4.17651
H         16.25642        4.14693       -1.86564
H         15.08890        3.13107       -2.75690
H         14.30601        2.86838       -0.48889
H         13.01379        4.03038       -0.09540
H         14.67858        5.58541        0.92697
H         16.01550        4.52374        0.43074
H         14.07887        3.94372        2.40283
H         18.10175        5.28126       -3.38516
H         18.80796        6.49956       -2.30216
H         19.24789        8.00674       -4.26027
H         18.54245        6.81087       -5.36317
H         20.32022        5.13704       -4.71887
H         21.01510        6.29796       -3.57685
H         22.13980        7.51871       -8.32838
H         20.46942        7.63018       -8.94039
H         22.09620        5.02588       -8.60291
H         21.76124        5.84052      -10.15155
H         20.42350        5.11803       -9.22758
H         23.12155        9.61345       -6.40047
H         23.84078        8.25213       -5.49168
H         22.38589       10.67280       -4.22627
H         24.15040       10.45541       -4.28757
H         23.15792        9.33765       -3.32597
