73

C          3.01192        4.43233        0.85986
C          2.73671        4.01907        2.30753
C          2.89177        2.53134        2.57439
O          4.27439        2.06554        2.30289
C          5.13686        2.14945        3.30363
O          4.93489        2.54792        4.43631
C          6.53039        1.67505        2.88271
N          7.25115        1.24547        4.12844
C          6.81812       -0.16341        4.48671
C          7.27291       -0.62943        5.87176
O          6.99682        0.34988        6.90100
C          5.69137        0.67380        7.19487
O          4.73221        0.19058        6.63549
C          5.63957        1.73684        8.26528
S          6.18191        3.36187        7.60107
C          6.69601       -2.03023        6.13936
O          7.13724       -2.55492        7.39765
C          8.41204       -3.05815        7.41570
O          9.14049       -3.06580        6.44387
C          8.77202       -3.55101        8.79374
S          9.42464       -2.16064        9.79572
C          8.76363        1.39398        4.05686
C          9.25483        2.79925        3.72877
C          8.84256        3.89989        4.71465
C          9.45440        5.25776        4.34835
C          9.16101        6.36873        5.36185
C          9.78881        7.71146        4.97007
C          9.57346        8.82512        5.99979
C         10.21351       10.15687        5.59323
C         10.04005       11.27073        6.63158
C         10.68449       12.59363        6.21023
H          2.84243        5.50781        0.72479
H          2.35138        3.90081        0.15990
H          4.04908        4.22089        0.56500
H          1.69778        4.26672        2.58045
H          3.37113        4.58307        3.00868
H          2.29208        1.92364        1.88575
H          2.65343        2.27018        3.61272
H          7.06646        2.51959        2.43249
H          6.50283        0.84976        2.16295
H          6.87480        1.87748        4.87257
H          7.23634       -0.82870        3.71916
H          5.72323       -0.17527        4.42632
H          8.36644       -0.71816        5.90822
H          6.26280        1.46994        9.12635
H          4.59940        1.85301        8.58555
H          7.48188        3.24110        7.95510
H          7.02466       -2.69415        5.32502
H          5.60395       -2.01153        6.19823
H          9.51370       -4.35280        8.72099
H          7.88455       -3.90840        9.32844
H         10.61495       -2.07735        9.15505
H          9.10805        0.66045        3.31441
H          9.13317        1.08611        5.04279
H          8.98379        3.08152        2.69821
H         10.35405        2.71997        3.71296
H          9.16113        3.61167        5.73128
H          7.74320        3.99959        4.76045
H          9.08968        5.56372        3.35219
H         10.54737        5.14276        4.24568
H          9.53885        6.06482        6.35396
H          8.06939        6.49002        5.47553
H          9.38298        8.03187        3.99444
H         10.87259        7.57063        4.81252
H          9.98479        8.50525        6.97340
H          8.49137        8.97287        6.16274
H          9.78725       10.48802        4.62966
H         11.29083       10.00082        5.40650
H         10.47031       10.94045        7.59226
H          8.96458       11.42758        6.82107
H         11.76600       12.47748        6.04533
H         10.54801       13.36965        6.97561
H         10.24721       12.97150        5.27401
