74

C          1.07400        1.20270        1.28308
C          2.56734        1.43217        1.03706
C          3.43924        0.86661        2.16945
C          4.92680        1.07000        1.87758
S          5.87006        0.38213        3.30096
C          7.47335        0.56795        2.73799
N          7.94432        1.12812        1.62863
N          9.30306        0.98418        1.64836
C          9.57416        0.37202        2.76848
O          8.49246        0.05475        3.52379
N         10.85899       -0.06559        3.11784
N         11.56187       -0.76521        2.23705
N         12.81379       -0.78310        2.61909
C         12.93000       -0.10186        3.76526
N         11.71311        0.38243        4.13586
C         11.14462        1.04479        5.39000
C         10.52634       -0.01437        6.41765
C         11.49484       -0.84137        7.35979
C         12.34135       -0.18959        8.54608
C         11.56252        0.73137        9.55435
C         12.22638        1.02337       10.96636
C         13.67412        1.64950       11.08383
C         13.93881        3.06972       10.46128
F         13.03343        3.96440       10.88713
F         15.16365        3.47379       10.82619
F         13.89160        3.01367        9.11300
F         13.91888        1.74539       12.41180
F         14.56571        0.78218       10.53486
F         11.35774        1.85275       11.59674
F         12.26899       -0.15235       11.63925
F         11.31876        1.91841        8.93190
F         10.37189        0.13798        9.83041
F         12.86141       -1.25091        9.20340
F         13.35362        0.51897        7.99382
F         10.72541       -1.81306        7.88579
F         12.41148       -1.41937        6.51889
F          9.61674        0.65669        7.14272
F          9.88301       -0.94383        5.65757
F         12.08095        1.79042        5.94453
F         10.15146        1.83566        4.95311
C         14.32815        0.02160        4.39557
C         15.44511        0.59497        3.39990
C         15.15610        1.91991        2.58628
C         14.81774        3.28715        3.31302
C         15.87043        3.86299        4.33492
C         15.80775        5.41470        4.67015
C         14.49300        6.07322        5.25229
C         13.93525        5.56177        6.63141
F         14.89077        5.53971        7.57048
F         12.94920        6.38216        7.02594
F         13.42010        4.31738        6.50145
F         14.77959        7.38712        5.40372
F         13.49633        5.94519        4.33418
F         16.80658        5.62266        5.56366
F         16.09717        6.09228        3.53340
F         15.76724        3.17033        5.49916
F         17.10685        3.65598        3.81758
F         14.62776        4.17607        2.31456
F         13.62328        3.09960        3.95783
F         16.21113        2.10619        1.77402
F         14.05243        1.66369        1.81132
F         16.54833        0.76397        4.15984
F         15.68871       -0.36154        2.47852
F         14.32029        0.77614        5.50602
F         14.71594       -1.23527        4.72384
H          0.47379        1.62039        0.46491
H          0.74254        1.67983        2.21634
H          0.83973        0.13085        1.35348
H          2.76675        2.51050        0.92940
H          2.86295        0.96695        0.08273
H          3.22909       -0.20790        2.29579
H          3.17120        1.35716        3.11962
H          5.19355        2.13047        1.77999
H          5.24961        0.53341        0.97613
