66

C          0.67257        0.20313       -0.24399
C          2.20306        0.22749       -0.22288
C          2.78186        0.87248        1.04160
C          4.31324        0.88649        1.08031
C          4.89181        1.55830        2.33048
C          6.42336        1.54806        2.37226
C          7.01513        2.26529        3.59058
C          8.54671        2.23223        3.62264
C          9.15809        3.00027        4.79924
C         10.69161        2.96227        4.79970
C         11.30607        3.74602        5.97106
C         12.83982        3.81709        6.01816
C         13.41689        4.67614        4.88169
O         14.83245        4.72490        4.88352
C         15.37777        3.42746        4.67210
C         14.99194        2.50806        5.82341
N         13.48607        2.42565        5.95136
C         13.08741        1.52579        7.10662
C         13.54158        0.12038        6.88518
C         14.36967       -0.60037        7.65005
Br        15.22203        0.06772        9.19134
Br        12.79667       -0.70189        5.32606
C         16.89545        3.55600        4.55761
O         17.40109        2.24651        4.40009
C         18.81213        2.21148        4.11720
C         19.23599        0.76322        3.98454
H          0.28917       -0.26061       -1.16314
H          0.25593        1.21987       -0.18688
H          0.27026       -0.36575        0.60751
H          2.57601        0.76909       -1.10882
H          2.58962       -0.80184       -0.31483
H          2.39903        0.33946        1.92990
H          2.40455        1.90704        1.12642
H          4.69641        1.40163        0.18170
H          4.68892       -0.15010        1.01567
H          4.49759        1.05732        3.23201
H          4.53160        2.60077        2.38303
H          6.81503        2.01650        1.45202
H          6.78064        0.50317        2.35363
H          6.61834        1.81161        4.51555
H          6.67283        3.31487        3.59722
H          8.93749        2.64889        2.67741
H          8.88813        1.18213        3.65407
H          8.78014        2.58731        5.75063
H          8.82264        4.05104        4.76883
H         11.05457        3.36144        3.83856
H         11.00536        1.90207        4.82897
H         10.91627        3.36173        6.92622
H         10.95971        4.79146        5.93087
H         13.17927        4.23287        6.97938
H         13.06155        5.70553        5.02022
H         13.05000        4.31774        3.90057
H         14.98925        3.00537        3.72127
H         15.37329        2.89749        6.77794
H         15.37661        1.49430        5.66389
H         13.12542        1.95825        5.09882
H         11.99431        1.56662        7.18873
H         13.53575        1.94189        8.01819
H         14.61229       -1.64029        7.44036
H         17.30144        4.05020        5.46309
H         17.12980        4.19974        3.68974
H         19.36140        2.71530        4.93426
H         19.00730        2.77288        3.18479
H         19.05609        0.21281        4.91774
H         20.30829        0.70517        3.75621
H         18.68708        0.26700        3.17317
