84

C          0.90908        1.23578       -1.01368
C          2.43268        1.09768       -0.97598
C          2.92498       -0.29498       -1.38625
C          4.44986       -0.43456       -1.35354
C          4.94965       -1.81228       -1.80322
C          6.48013       -1.91481       -1.79509
C          6.98210       -3.25963       -2.28872
O          8.43195       -3.22551       -2.29256
C          9.02446       -4.41171       -2.79190
N         10.45597       -4.19746       -2.91851
C         11.20463       -4.04053       -1.79243
N         10.58752       -3.82679       -0.62203
C         11.34342       -3.66386        0.62604
C         12.69592       -3.01692        0.33293
C         13.45461       -3.82731       -0.71880
N         12.54269       -4.10389       -1.85116
C         14.71576       -3.11921       -1.22382
C         15.56235       -4.00655       -2.14789
C         16.94382       -3.45794       -2.52973
C         17.06495       -2.61419       -3.85459
C         16.30318       -1.24346       -4.01512
C         16.63334       -0.06502       -3.02728
F         17.95192        0.14083       -2.93811
F         16.04021        1.05183       -3.48146
F         16.14436       -0.32597       -1.79300
F         16.57073       -0.80197       -5.26465
F         14.95410       -1.48477       -3.92782
F         18.37882       -2.37559       -4.07626
F         16.58979       -3.40576       -4.86429
F         17.49208       -2.73132       -1.50557
F         17.77041       -4.53102       -2.74608
C         11.03891       -3.95916       -4.24444
C         11.58639       -5.24536       -4.90273
C         12.63063       -4.90881       -5.95903
C         13.43017       -6.11128       -6.58473
C         12.65363       -7.34002       -7.20159
C         11.61278       -7.15648       -8.37303
C         12.03424       -6.55018       -9.77093
C         13.18293       -7.25716      -10.58346
F         12.96903       -8.58085      -10.66475
F         13.20253       -6.73858      -11.82084
F         14.37735       -7.03825      -10.00571
F         10.91127       -6.60190      -10.53107
F         12.38121       -5.25027       -9.59798
F         11.09327       -8.38683       -8.59513
F         10.61036       -6.35424       -7.89794
F         13.58932       -8.23058       -7.60069
F         11.94144       -7.90471       -6.17530
F         14.27711       -5.61456       -7.51157
F         14.17198       -6.64501       -5.56366
F         12.08251       -4.16311       -6.95977
F         13.60970       -4.11932       -5.37250
H          0.59052        2.24722       -0.72780
H          0.42571        0.52855       -0.32347
H          0.51454        1.03594       -2.02073
H          2.80024        1.32905        0.03812
H          2.88833        1.85098       -1.64083
H          2.55910       -0.52439       -2.40259
H          2.47156       -1.05352       -0.72417
H          4.81543       -0.22809       -0.33239
H          4.90014        0.34041       -1.99825
H          4.57293       -2.02081       -2.81933
H          4.51937       -2.59194       -1.15154
H          6.86113       -1.74043       -0.77510
H          6.91058       -1.12580       -2.43234
H          6.63217       -3.46222       -3.31751
H          6.63390       -4.08575       -1.64145
H          8.63290       -4.66638       -3.79106
H          8.83622       -5.26456       -2.11179
H          9.63544       -3.45898       -0.70259
H         11.46924       -4.64383        1.11302
H         10.74064       -3.03900        1.29530
H         13.29577       -2.96968        1.25070
H         12.54816       -1.98509       -0.02190
H         13.74033       -4.80068       -0.27993
H         12.96589       -4.40835       -2.72091
H         15.31667       -2.84826       -0.34471
H         14.42340       -2.18133       -1.71222
H         15.05208       -4.25669       -3.09055
H         15.77815       -4.95915       -1.64040
H         11.83095       -3.20497       -4.14533
H         10.25985       -3.50662       -4.86928
H         10.77651       -5.82593       -5.36074
H         12.05933       -5.89874       -4.15539
