66

C          4.95869       -1.26039        0.58893
O          3.91688       -1.03979       -0.37162
C          3.27954       -2.13925       -0.89107
C          3.55476       -3.44378       -0.45008
C          2.88717       -4.53898       -0.99448
C          1.93482       -4.35609       -1.99732
C          1.66510       -3.06570       -2.44008
C          2.31194       -1.93838       -1.90285
C          1.84488       -0.63536       -2.53608
O          0.44544       -0.37626       -2.31215
C          0.17174       -0.26267       -0.94858
N          1.20663        0.56945       -0.30279
C          2.27365        1.09621       -0.92061
N          2.98712        2.01322       -0.25327
C          4.41566        2.36123       -0.31879
C          4.59492        3.87197       -0.50746
C          6.05512        4.25059       -0.76383
S          6.15327        6.03350       -1.05165
O          5.52088        6.33691       -2.31901
O          5.76962        6.69701        0.16747
O          7.75373        6.21711       -1.22455
N          2.56540        0.61994       -2.17804
C          2.95199        1.43959       -3.32359
C          1.82119        2.04298       -4.28226
C          0.77658        3.03626       -3.60689
C          0.76600        4.55579       -4.08126
C          0.46524        4.84200       -5.61322
C         -0.41513        6.11149       -5.97058
C          0.07111        7.56611       -5.57727
C          1.46004        8.07364       -6.11804
F          1.57784        7.86324       -7.43901
F          1.55308        9.39024       -5.87474
F          2.46943        7.44857       -5.48072
F         -0.88105        8.40274       -6.05636
F          0.10267        7.67030       -4.22249
F         -0.55418        6.07536       -7.32005
F         -1.64065        5.94587       -5.41235
F          1.63010        4.94656       -6.29060
F         -0.21910        3.76714       -6.10177
F         -0.20076        5.12271       -3.31481
F          1.95938        5.10138       -3.74462
F         -0.46085        2.52230       -3.71746
F          1.06526        3.10918       -2.26101
F          2.50486        2.69699       -5.25174
F          1.14465        1.02422       -4.86132
F          3.70141        2.49368       -2.93350
F          3.71617        0.64801       -4.12096
H          5.36018       -0.26951        0.82414
H          5.76243       -1.88425        0.17137
H          4.56959       -1.72140        1.50964
H          4.29666       -3.61152        0.32743
H          3.12283       -5.53971       -0.63208
H          1.41601       -5.20625       -2.43770
H          0.92683       -2.91296       -3.22983
H          1.92539       -0.73921       -3.62105
H          0.16526       -1.24089       -0.43367
H         -0.81055        0.22177       -0.85964
H          1.18860        0.60931        0.71226
H          2.48409        2.44044        0.52155
H          4.88144        1.77921       -1.11909
H          4.87323        2.03836        0.63033
H          4.23557        4.40123        0.38883
H          3.97689        4.20943       -1.34958
H          6.45861        3.76603       -1.66382
H          6.71204        4.03748        0.09097
H          7.92197        6.46362       -2.15494
