81

F          2.49912        1.47727        0.48467
C          3.84781        1.48840        0.43853
C          4.46130        1.11167        1.82079
C          3.83543       -0.04542        2.68835
C          3.75884       -1.51152        2.12458
C          5.08737       -2.24582        1.86418
O          5.70521       -1.84177        0.64531
C          5.45919       -2.64922       -0.51125
C          6.09185       -1.86959       -1.66595
N          7.37248       -1.18248       -1.15808
C          8.63319       -2.05660       -1.14592
C          9.09252       -2.86529       -2.44142
C          9.39201       -2.14780       -3.81892
C         10.52954       -1.05512       -3.97468
C         12.04561       -1.35624       -3.63053
C         12.84911       -2.51403       -4.34790
C         13.04514       -2.53340       -5.91771
C         13.75306       -1.30957       -6.61044
F         14.91261       -1.01879       -5.99997
F         13.99461       -1.63218       -7.88853
F         12.95654       -0.22307       -6.58325
F         13.79940       -3.63039       -6.16518
F         11.82912       -2.69958       -6.50272
F         14.07388       -2.49952       -3.77286
F         12.23752       -3.68804       -4.02783
F         12.69884       -0.18973       -3.84141
F         12.09569       -1.63324       -2.29717
F         10.44187       -0.62654       -5.24898
F         10.17975       -0.01163       -3.15500
F          9.61130       -3.13159       -4.70721
F          8.22313       -1.51099       -4.16654
F         10.18177       -3.54736       -2.04315
F          8.10234       -3.76452       -2.70896
F          9.64589       -1.29222       -0.71598
F          8.38504       -2.99941       -0.20994
C          7.50405        0.25064       -1.67885
C          8.31702        1.15826       -0.75279
C          7.93024        2.64242       -0.85786
C          8.42404        3.34448       -2.16883
C          7.90237        4.80174       -2.52948
C          8.10728        5.91899       -1.44053
C          7.98998        7.43719       -1.88938
C          6.68200        7.99736       -2.57686
C          5.28265        7.96988       -1.83908
C          5.13884        8.68909       -0.44581
F          5.64324        9.93133       -0.48584
F          3.83120        8.75630       -0.14108
F          5.76334        7.98897        0.52000
F          4.41831        8.57312       -2.69199
F          4.89317        6.67600       -1.67606
F          6.95696        9.29065       -2.87381
F          6.50720        7.31736       -3.74337
F          8.21406        8.16410       -0.76412
F          9.00046        7.67880       -2.76056
F          7.22558        5.69498       -0.43264
F          9.36919        5.79122       -0.94860
F          8.56648        5.14511       -3.66031
F          6.58037        4.69302       -2.81319
F          9.77815        3.33218       -2.16005
F          8.00761        2.55706       -3.21734
F          6.56264        2.77665       -0.77924
F          8.47438        3.28110        0.21272
F          3.10005       -2.23061        3.07840
F          2.99041       -1.50677        0.98979
F          4.59614       -0.11025        3.82332
F          2.58276        0.33223        3.02889
F          5.79571        0.83354        1.62331
F          4.38387        2.23464        2.57980
F          4.25744        0.59025       -0.52588
H          4.20641        2.49046        0.15595
H          4.86163       -3.32289        1.86250
H          5.78668       -2.03308        2.68247
H          4.38398       -2.75457       -0.71796
H          5.90364       -3.64919       -0.38100
H          5.43593       -1.04803       -1.96510
H          6.30720       -2.49171       -2.53638
H          7.13546       -1.11124       -0.13125
H          6.46842        0.60419       -1.71101
H          7.88802        0.20971       -2.69808
H          9.39650        1.07986       -0.91827
H          8.12164        0.90987        0.30151
