82

O          3.67334        0.78426        1.42419
C          3.07034        2.06332        1.43707
C          2.40813        2.25880        0.04794
C          1.59963        3.52998        0.08485
N          2.21279        4.65966       -0.35776
C          1.69328        5.91558       -0.35735
C          0.41389        6.06277        0.16305
C         -0.27024        4.93830        0.62540
C          0.29320        3.65297        0.58941
C         -0.50738        2.45338        1.03274
C         -1.59315        2.11350       -0.01368
C         -2.27515        0.74842        0.20693
C         -2.02139       -0.33953       -0.90530
C         -0.55638       -0.84997       -1.21690
C          0.33464       -1.60674       -0.15111
C         -0.13364       -2.95008        0.53890
C         -0.48626       -4.24082       -0.30577
C          0.57703       -4.92711       -1.25693
C          1.94047       -5.42503       -0.64714
F          1.73758       -6.15945        0.45817
F          2.56269       -6.17984       -1.56703
F          2.73864       -4.38338       -0.34156
F         -0.05379       -6.01608       -1.76194
F          0.86437       -4.08053       -2.27966
F         -0.87134       -5.16401        0.60972
F         -1.55452       -3.94351       -1.09048
F          0.86639       -3.27943        1.39909
F         -1.24082       -2.66331        1.26898
F          1.52093       -1.83229       -0.76665
F          0.56640       -0.73304        0.87690
F         -0.64391       -1.62692       -2.31553
F          0.18872        0.26272       -1.55382
F         -2.79759       -1.41301       -0.64266
F         -2.44298        0.22085       -2.08050
F         -1.95404        0.21056        1.42432
F         -3.63337        0.92838        0.20262
C          2.55667        7.01597       -0.89537
C          3.49115        7.59999        0.19481
C          4.73419        8.31860       -0.35671
C          6.08927        7.50546       -0.34238
C          6.24886        6.16990       -1.17423
C          6.16835        6.11449       -2.75300
C          7.13327        6.96731       -3.67330
C          8.70584        6.80330       -3.60357
C          9.40850        5.41753       -3.90801
C          9.15947        4.72285       -5.29891
F          9.33959        5.58701       -6.30957
F         10.02956        3.70911       -5.42608
F          7.90970        4.22186       -5.36575
F         10.73713        5.66780       -3.81785
F          9.06780        4.53188       -2.93414
F          9.19219        7.71249       -4.48208
F          9.10233        7.15857       -2.35275
F          6.74193        6.69933       -4.94545
F          6.87539        8.27401       -3.41684
F          6.30560        4.80394       -3.07344
F          4.90219        6.49015       -3.10970
F          7.41004        5.60751       -0.79562
F          5.22824        5.32269       -0.74753
F          7.09252        8.33794       -0.68837
F          6.27890        7.11605        0.95658
F          4.51839        8.79202       -1.62185
F          4.99219        9.39955        0.44071
C          3.43898        2.18316       -1.08685
H          4.05265        0.59930        2.29739
H          3.81521        2.86893        1.59827
H          2.30649        2.14771        2.23204
H          1.70567        1.42598       -0.08292
H          3.15449        4.54169       -0.74383
H         -0.04405        7.05036        0.19052
H         -1.27857        5.06163        1.02593
H         -0.98122        2.66966        2.00065
H          0.14250        1.58946        1.19643
H         -1.17483        2.14611       -1.02686
H         -2.39748        2.86116        0.01581
H          1.91789        7.81027       -1.30017
H          3.13839        6.62797       -1.74024
H          3.82503        6.82561        0.89740
H          2.94791        8.34689        0.78843
H          4.26494        2.90423       -0.97474
H          2.97072        2.32212       -2.07052
H          3.90283        1.19099       -1.07123
