69

C          0.65135        0.17928       -0.52011
C          2.14259        0.47401       -0.69996
C          2.84341       -0.49529       -1.65929
C          4.33837       -0.20811       -1.83230
C          5.04859       -1.17708       -2.78388
C          6.54947       -0.89543       -2.91695
C          7.27238       -1.86618       -3.86145
C          8.76121       -1.58020       -3.90299
O          9.39615       -2.52219       -4.83557
C         10.69586       -2.77357       -4.64929
O         11.38649       -2.29699       -3.76083
C         11.21728       -3.74568       -5.69952
C         12.68314       -4.11363       -5.48667
O         13.07975       -4.96787       -6.55529
C         14.50779       -5.14241       -6.59675
C         15.00236       -5.79654       -5.30027
N         14.49271       -5.02594       -4.10364
C         12.98570       -4.76738       -4.12187
C         12.20284       -6.04305       -3.80466
C         12.12244       -6.41145       -2.32742
C         11.18742       -7.55973       -2.00474
Br         9.33071       -7.00779       -2.35168
Br        13.92956       -6.99005       -1.62264
C         14.91552       -5.92322       -7.81863
C         15.72313       -5.29584       -8.77444
C         16.14706       -5.96066       -9.92515
C         15.74593       -7.28020      -10.12874
C         14.93552       -7.93269       -9.19635
C         14.51979       -7.26562       -8.03710
O         13.73711       -7.84167       -7.07073
C         13.25720       -9.17308       -7.29544
H          0.18119        0.89133        0.17185
H          0.48950       -0.83124       -0.11599
H          0.11251        0.24159       -1.47719
H          2.64631        0.43944        0.28102
H          2.27297        1.50554       -1.06874
H          2.34552       -0.45755       -2.64423
H          2.70963       -1.52900       -1.29384
H          4.83124       -0.24265       -0.84461
H          4.47135        0.82497       -2.19874
H          4.57572       -1.12841       -3.78001
H          4.90224       -2.21218       -2.42876
H          7.01494       -0.94164       -1.91693
H          6.69615        0.13934       -3.27158
H          6.85163       -1.79100       -4.87658
H          7.11375       -2.90425       -3.52637
H          9.23607       -1.69650       -2.91960
H          8.97764       -0.56599       -4.27122
H         11.12278       -3.27760       -6.69046
H         10.57375       -4.63666       -5.73586
H         13.27758       -3.17509       -5.52461
H         14.97092       -4.13667       -6.67451
H         16.09826       -5.79734       -5.24988
H         14.63379       -6.82325       -5.21380
H         14.97084       -4.11674       -4.04657
H         14.70796       -5.55560       -3.22909
H         12.80737       -4.00784       -3.34689
H         12.54163       -6.89789       -4.40842
H         11.16081       -5.86429       -4.11397
H         11.89539       -5.53739       -1.70438
H         11.22224       -7.82495       -0.94459
H         11.37206       -8.44415       -2.62360
H         16.01923       -4.25772       -8.60888
H         16.77541       -5.45193      -10.65481
H         16.06092       -7.81715      -11.02387
H         14.63513       -8.96222       -9.38002
H         14.08473       -9.89533       -7.36764
H         12.63751       -9.22268       -8.20346
H         12.64001       -9.41457       -6.42366
