98

C          0.67024       -0.69660        1.14986
C          2.18785       -0.59517        0.97748
C          2.76698       -1.67232        0.05358
C          4.28592       -1.58352       -0.12284
C          4.85826       -2.65427       -1.05694
C          6.37847       -2.57493       -1.22658
C          6.94215       -3.62130       -2.19288
C          8.46581       -3.56532       -2.33859
C          9.01957       -4.56099       -3.36297
C         10.54688       -4.53022       -3.47713
C         11.09770       -5.46570       -4.55865
C         12.62695       -5.43263       -4.65137
C         13.18231       -6.32084       -5.77613
C         14.70112       -6.22270       -5.82609
N         15.34916       -7.18638       -6.82116
C         14.81353       -7.06370       -8.22686
C         14.95025       -5.65169       -8.80497
O         15.72156       -4.81347       -8.38217
O         14.10367       -5.53077       -9.82540
C         14.13666       -4.26598      -10.58746
C         15.10425       -4.36053      -11.75668
C         15.04025       -3.10121      -12.62807
C         16.87879       -7.16694       -6.75007
C         17.40231       -7.75554       -5.44653
C         18.93423       -7.88270       -5.45119
C         19.47207       -8.39692       -4.11036
C         21.00105       -8.47028       -4.04615
C         21.51954       -8.93508       -2.68074
C         23.04779       -8.94989       -2.57288
C         23.55502       -9.37920       -1.19232
C         25.08129       -9.35376       -1.06143
C         25.58408       -9.76081        0.32719
C         27.10977       -9.71448        0.46812
C         27.60307      -10.11167        1.86157
H          0.28605        0.08789        1.81619
H          0.38085       -1.66754        1.57887
H          0.15105       -0.59565        0.18500
H          2.67654       -0.66344        1.96428
H          2.44886        0.40081        0.58103
H          2.28010       -1.60229       -0.93545
H          2.50293       -2.66986        0.44751
H          4.77325       -1.66244        0.86509
H          4.55108       -0.58353       -0.50942
H          4.37641       -2.56784       -2.04698
H          4.58578       -3.65469       -0.67692
H          6.86219       -2.68887       -0.24034
H          6.65462       -1.56635       -1.58184
H          6.47590       -3.48670       -3.18503
H          6.64502       -4.62997       -1.85569
H          8.93377       -3.75120       -1.35584
H          8.76819       -2.54314       -2.62722
H          8.57494       -4.34917       -4.35137
H          8.69313       -5.58182       -3.09768
H         10.99211       -4.79439       -2.50209
H         10.87637       -3.49821       -3.69022
H         10.66554       -5.18771       -5.53574
H         10.76367       -6.49883       -4.36002
H         13.06147       -5.74740       -3.68741
H         12.96127       -4.39405       -4.81464
H         12.73513       -6.00278       -6.73107
H         12.87092       -7.36711       -5.60605
H         15.13315       -6.48040       -4.85192
H         15.04703       -5.22136       -6.10747
H         15.07282       -8.12997       -6.51337
H         13.76287       -7.37306       -8.22840
H         15.37461       -7.76685       -8.85818
H         14.40072       -3.45675       -9.89425
H         13.09922       -4.14499      -10.92260
H         14.85345       -5.24913      -12.35590
H         16.12623       -4.50208      -11.37268
H         14.03368       -2.94963      -13.04312
H         15.73717       -3.18189      -13.47114
H         15.30976       -2.20065      -12.05864
H         17.18133       -6.12538       -6.90735
H         17.22378       -7.75835       -7.61013
H         16.95548       -8.75289       -5.27921
H         17.10933       -7.12753       -4.59156
H         19.38003       -6.89832       -5.67240
H         19.24950       -8.55589       -6.26605
H         19.04640       -9.39425       -3.90324
H         19.10949       -7.73834       -3.30179
H         21.42237       -7.47612       -4.27632
H         21.37323       -9.14788       -4.83398
H         21.12611       -9.94356       -2.46306
H         21.10901       -8.27581       -1.89556
H         23.43776       -7.94357       -2.80681
H         23.46497       -9.62161       -3.34345
H         23.18462      -10.39450       -0.96555
H         23.11435       -8.71997       -0.42353
H         25.44930       -8.33987       -1.29886
H         25.52537      -10.02041       -1.82157
H         25.22696      -10.77920        0.56225
H         25.12934       -9.10069        1.08717
H         27.46426       -8.69779        0.22739
H         27.56392      -10.37799       -0.28730
H         27.19416       -9.44502        2.63552
H         28.69852      -10.06547        1.92980
H         27.29806      -11.13759        2.11652
