56

N          2.07563       -1.82137       -0.72728
C          3.45806       -1.64729       -0.28150
C          3.52580       -0.63633        0.86751
C          4.94273       -0.45254        1.41530
C          5.00483        0.62329        2.50089
C          6.46386        0.90715        2.95532
C          6.53480        2.09529        3.85860
C          6.16302        1.92130        5.21453
N          6.18870        2.87317        6.13055
N          6.60219        4.05396        5.69244
C          6.95734        4.39606        4.43387
C          6.91977        3.38679        3.44406
C          7.32343        3.68771        2.01756
C          6.23105        3.44871        0.98276
C          6.49842        2.67479       -0.15331
C          5.50363        2.44226       -1.10606
C          4.22828        2.98490       -0.93455
C          3.95581        3.76837        0.19011
C          4.95019        3.99603        1.14254
C          7.37607        5.82086        4.24476
C          6.29172        6.80009        3.69810
C          5.06220        6.92721        4.62728
C          3.94843        5.89220        4.43318
C          6.96417        8.16200        3.47561
H          1.98864       -2.61515       -1.36059
H          1.74420       -0.99912       -1.23284
H          4.15792       -1.32749       -1.08230
H          3.81913       -2.62552        0.07401
H          2.83920       -0.96503        1.66369
H          3.14814        0.33912        0.51266
H          5.61990       -0.16866        0.59262
H          5.32118       -1.40938        1.81379
H          4.40349        0.32173        3.37411
H          4.56097        1.55324        2.11946
H          7.09292        1.05298        2.06910
H          6.85039        0.02607        3.49141
H          5.83875        0.94694        5.58421
H          6.63205        4.77159        6.41963
H          8.19115        3.05614        1.76802
H          7.67768        4.72407        1.94234
H          7.49286        2.24561       -0.29595
H          5.72780        1.83512       -1.98365
H          3.44969        2.80335       -1.67575
H          2.96378        4.19901        0.33047
H          4.71656        4.59365        2.02376
H          8.24671        5.84456        3.57467
H          7.73074        6.21256        5.21308
H          5.95251        6.42230        2.71868
H          4.62652        7.92452        4.46380
H          5.39830        6.94200        5.68030
H          3.52495        5.96075        3.42069
H          3.12601        6.07189        5.13811
H          4.27539        4.85339        4.58235
H          7.29599        8.60271        4.42802
H          6.25949        8.86434        3.01220
H          7.84103        8.08400        2.81761
