83

C          2.89279        3.82705      -12.35682
C          4.40215        3.88838      -12.10819
C          4.89011        2.87731      -11.06384
C          6.40207        2.92792      -10.82014
C          6.90532        1.87433       -9.82750
C          8.42086        1.91902       -9.60280
C          8.93909        0.81394       -8.67654
C         10.45551        0.85227       -8.45560
C         10.97175       -0.29459       -7.58055
C         12.48478       -0.25581       -7.33569
C         13.02416       -1.38897       -6.44688
C         12.79563       -2.81930       -6.97376
C         13.32917       -3.08310       -8.39055
C         14.85903       -2.99094       -8.49891
C         15.39054       -2.95756       -9.92980
C         16.92633       -2.94042      -10.06497
C         17.31866       -1.47848      -10.37241
C         16.15296       -0.98447      -11.24663
N         14.94485       -1.64087      -10.60084
C         16.14563       -1.42487      -12.71975
O         14.78997       -1.36978      -13.13994
C         14.57738       -1.74960      -14.51808
C         13.08473       -1.75674      -14.79917
C         12.77787       -2.14882      -16.24827
C         18.73859       -1.27412      -10.94566
C         18.97852        0.20121      -11.30317
O         18.67471        1.00377      -10.15732
C         19.79428       -1.82157       -9.95794
C         21.24071       -1.73656      -10.45146
H          2.57875        4.55877      -13.11373
H          2.32698        4.03794      -11.43717
H          2.58604        2.83130      -12.71056
H          4.68215        4.90603      -11.78708
H          4.93880        3.71414      -13.05656
H          4.60634        1.85925      -11.38521
H          4.35854        3.05013      -10.11149
H          6.68123        3.93390      -10.46043
H          6.92816        2.79664      -11.78272
H          6.62048        0.87042      -10.18933
H          6.38816        2.00256       -8.86058
H          8.70131        2.90457       -9.19173
H          8.93341        1.84346      -10.57879
H          8.65664       -0.16967       -9.09220
H          8.42915        0.88370       -7.70012
H         10.73660        1.81797       -8.00077
H         10.96603        0.82211       -9.43628
H         10.68440       -1.25309       -8.04610
H         10.45634       -0.27325       -6.60486
H         12.75222        0.70733       -6.87233
H         13.00738       -0.25159       -8.31514
H         12.55130       -1.31479       -5.45503
H         14.09862       -1.22127       -6.26429
H         11.71992       -3.04852       -6.96435
H         13.25722       -3.53423       -6.27380
H         12.84499       -2.37533       -9.08729
H         13.01067       -4.08318       -8.72411
H         15.31368       -3.85727       -7.99544
H         15.24116       -2.10312       -7.96419
H         14.93924       -3.76480      -10.52310
H         17.25007       -3.61039      -10.87482
H         17.39181       -3.30113       -9.14121
H         17.27081       -0.89892       -9.43512
H         16.00307        0.10125      -11.18592
H         14.25735       -1.77926      -11.36812
H         14.52127       -1.02385       -9.89594
H         16.54803       -2.44807      -12.84738
H         16.77819       -0.73865      -13.30726
H         15.02033       -2.74863      -14.68861
H         15.10260       -1.02845      -15.16969
H         12.67716       -0.75754      -14.58114
H         12.59471       -2.46025      -14.10684
H         13.23202       -1.44589      -16.96095
H         11.69587       -2.14788      -16.42837
H         13.15232       -3.15514      -16.48405
H         18.83103       -1.84410      -11.88929
H         18.34524        0.50048      -12.16042
H         20.02436        0.33508      -11.62021
H         19.08988        1.87250      -10.26263
H         19.56181       -2.87676       -9.74956
H         19.69364       -1.28711       -8.99990
H         21.35908       -2.20200      -11.44153
H         21.91094       -2.26263       -9.75967
H         21.60144       -0.70160      -10.52070
