47

F          1.35318        0.55526        0.03817
C          2.65957        0.86947       -0.12585
C          3.22380        1.56962        1.14800
C          2.84259        1.05929        2.59010
C          3.13260       -0.42302        3.03487
C          4.59930       -0.85074        3.16472
O          5.11550       -1.12953        1.87355
C          6.49450       -0.89790        1.72101
C          6.75632       -1.01525        0.20332
C          8.17511       -0.72297       -0.14800
N          8.54413        0.56953       -0.27495
N          9.74959        1.04756       -0.53503
C         10.72518        0.14319       -0.69857
C         10.48524       -1.27267       -0.62687
C          9.18636       -1.67264       -0.33415
C         11.59500       -2.25260       -0.81521
C         12.36752       -2.46932        0.51077
C         13.54215       -3.43186        0.33773
C         14.35233       -3.53954        1.63075
O         14.14394       -2.86376        2.60900
O         15.35933       -4.45273        1.62740
C         12.01790        0.66741       -0.95495
C         13.13011        1.10259       -1.15581
F          2.58559       -0.52788        4.28528
F          2.45770       -1.26595        2.20449
F          3.52603        1.87061        3.45822
F          1.51724        1.28178        2.75061
F          4.59775        1.59807        1.03222
F          2.79183        2.85950        1.08551
F          3.36022       -0.27109       -0.40254
H          2.76410        1.56732       -0.97421
H          4.61279       -1.74966        3.80422
H          5.15776       -0.04624        3.67089
H          7.10372       -1.63555        2.27932
H          6.77066        0.11243        2.08350
H          6.07638       -0.31973       -0.31115
H          6.49499       -2.02881       -0.12797
H          7.83714        1.30300       -0.16883
H          8.93391       -2.73074       -0.25839
H         12.28674       -1.87349       -1.58264
H         11.18249       -3.20749       -1.17216
H         11.68163       -2.85526        1.27918
H         12.74432       -1.50985        0.89143
H         14.21715       -3.08420       -0.46317
H         13.19458       -4.43454        0.03820
H         15.40692       -4.92074        0.77501
H         14.10868        1.50295       -1.33702
