54

N          6.00809        1.19444       -3.05371
C          7.25838        0.57351       -2.59150
C          7.82344        1.31479       -1.37230
C          6.88638        1.26867       -0.16201
C          7.38874        2.06036        1.05120
C          6.41069        1.96718        2.22897
C          6.89718        2.59264        3.53238
C          5.91502        2.40398        4.70371
N          6.06213        3.65935        5.47895
C          6.59147        4.62854        4.66074
N          6.76681        5.91087        4.93998
C          6.53658        6.61169        6.21012
C          7.28826        7.94424        6.21576
O          6.66037        8.93178        5.34861
C          7.00956        8.95799        4.04486
O          7.62815        8.05523        3.48650
C          6.50558       10.19701        3.35820
S          4.82639        9.87891        2.69052
C          7.25439        8.55054        7.62415
O          7.70502        9.91122        7.63364
C          9.05191       10.09957        7.48323
O          9.85644        9.19286        7.43194
C          9.36630       11.56779        7.33484
S          9.27343       12.03328        5.56261
N          6.99890        4.07212        3.49917
Br         4.58299        4.03013        6.60031
H          5.51468        0.57515       -3.69605
H          6.20571        2.04953       -3.57583
H          8.04239        0.51599       -3.37012
H          7.02635       -0.46500       -2.30577
H          8.01981        2.36563       -1.65146
H          8.80262        0.87798       -1.11524
H          6.73713        0.21622        0.13723
H          5.89708        1.64095       -0.47103
H          7.53567        3.11582        0.76007
H          8.37828        1.68105        1.36166
H          6.21066        0.90318        2.44175
H          5.44173        2.41788        1.95870
H          7.88706        2.18532        3.80319
H          6.15629        1.54339        5.33698
H          4.88113        2.30876        4.33596
H          7.18265        6.52602        4.20807
H          6.90326        5.99603        7.04464
H          5.46467        6.80241        6.36375
H          8.32831        7.80917        5.88476
H          7.19205       10.48447        2.55537
H          6.40174       11.02021        4.07283
H          5.23210        9.12105        1.64429
H          7.87491        7.93738        8.29381
H          6.22548        8.59796        8.00385
H         10.36316       11.78462        7.73158
H          8.61593       12.18892        7.83738
H         10.37639       11.34894        5.17652
H          7.71746        4.52623        2.94084
