63

C          5.07337       -2.64492       -3.96980
C          4.56591       -1.24593       -3.60959
C          5.45570       -0.53680       -2.58331
C          4.95588        0.85868       -2.19546
C          5.84874        1.62177       -1.20190
C          7.32043        1.82444       -1.62975
P          7.53323        2.52188       -3.29038
C          6.64252        4.09215       -3.50983
C          6.71595        4.69212       -4.93236
C          6.37174        3.73605       -6.08568
C          4.97900        3.09433       -6.02510
C          4.74695        2.08035       -7.14810
C          9.29226        2.62005       -3.74815
C          9.86157        1.24389       -4.15998
C          9.47367        0.82929       -5.58835
C          9.82281       -0.62042       -5.96123
C          9.07917       -1.67827       -5.11476
C          9.94835       -2.25047       -3.99437
O          9.16560       -3.03715       -3.05918
C          8.63551       -2.37134       -2.00534
O          8.76693       -1.16457       -1.82686
C          7.89751       -3.30461       -1.12432
C          7.38561       -2.90200        0.04446
H          4.42178       -3.13132       -4.70740
H          5.11233       -3.29363       -3.08251
H          6.08765       -2.61101       -4.39497
H          3.53777       -1.31479       -3.21803
H          4.49850       -0.62808       -4.52263
H          6.48137       -0.48169       -2.98633
H          5.54086       -1.15655       -1.67537
H          3.95376        0.77565       -1.74683
H          4.80146        1.46078       -3.11050
H          5.88053        1.07698       -0.24576
H          5.39483        2.59842       -0.97555
H          7.87407        0.86965       -1.63598
H          7.84486        2.49945       -0.93550
H          6.95022        1.60268       -4.18685
H          7.04639        4.79383       -2.76351
H          5.60332        3.88298       -3.21358
H          7.71970        5.11275       -5.09485
H          6.02753        5.55096       -4.94465
H          7.13785        2.94257       -6.16048
H          6.46518        4.30032       -7.02652
H          4.21405        3.88675       -6.06769
H          4.82464        2.58816       -5.05588
H          4.86122        2.54530       -8.13765
H          3.73809        1.65078       -7.09784
H          5.46558        1.24828       -7.09019
H          9.81712        3.03397       -2.87362
H          9.38647        3.35641       -4.56088
H          9.54535        0.48486       -3.42753
H         10.95771        1.30023       -4.07961
H          9.95368        1.51717       -6.30313
H          8.38619        0.95549       -5.73759
H         10.91267       -0.77371       -5.88949
H          9.57638       -0.76322       -7.02228
H          8.73348       -2.50596       -5.74901
H          8.17289       -1.23064       -4.67549
H         10.47025       -1.46309       -3.43492
H         10.68989       -2.95400       -4.39320
H          7.81393       -4.33535       -1.47065
H          7.50057       -1.86864        0.37632
H          6.85603       -3.59116        0.70116
