107

C          4.34854        2.34568       -2.32515
C          4.91832        0.92594       -2.37068
C          4.89175        0.21265       -1.01367
C          5.49541       -1.19486       -1.05447
C          5.47180       -1.91859        0.29588
C          6.16019       -3.28682        0.25785
C          6.12914       -4.03720        1.59373
C          6.93122       -5.34308        1.51687
N          6.87771       -6.17025        2.73232
C          6.06087       -7.23465        2.88335
S          6.13759       -8.29636        4.17441
S          4.85541       -7.37686        1.55047
C          4.03061       -8.97750        1.81318
C          2.62872       -8.84949        2.42541
C          2.67006       -8.73171        3.96902
C          1.47107       -8.05633        4.57358
C          1.51755       -6.68753        4.83367
C          2.71139       -5.83488        4.49594
C          3.74376       -5.74342        5.64106
O          4.74852       -4.75711        5.32437
C          4.40213       -3.45841        5.55347
O          3.30786       -3.13357        5.98598
C          5.51414       -2.50603        5.20106
C          5.03389       -1.37567        4.27223
C          6.14702       -0.38131        3.94268
N          0.42665       -6.07347        5.44483
C          0.43828       -4.61688        5.76401
C         -0.07098       -3.76314        4.59833
C          0.11448       -2.27871        4.90331
F         -0.36397       -1.53523        3.82128
C         -0.68505       -6.75414        5.75380
C         -0.81723       -8.12041        5.48969
C          0.28972       -8.80226        4.88340
C          0.14736      -10.18983        4.62336
C         -1.02326      -10.84783        4.94697
C         -2.10852      -10.16484        5.55016
C         -2.01043       -8.81939        5.82140
C          7.81352       -5.79176        3.80462
C          9.18405       -6.46983        3.71412
C         10.09134       -6.02085        4.86388
C         11.46973       -6.68882        4.86002
C         12.36567       -6.22215        6.01199
C         13.74205       -6.89366        6.03730
C         14.63591       -6.41424        7.18643
C         16.00702       -7.09448        7.21305
H          4.38118        2.82400       -3.31340
H          4.91659        2.98209       -1.63048
H          3.30014        2.34645       -1.99127
H          5.95719        0.95837       -2.74027
H          4.35604        0.32503       -3.10517
H          3.85002        0.15775       -0.65048
H          5.43840        0.82136       -0.27148
H          6.53848       -1.13031       -1.41051
H          4.95955       -1.80289       -1.80407
H          4.42581       -2.03802        0.63016
H          5.96417       -1.28575        1.05368
H          7.20930       -3.15050       -0.05747
H          5.69138       -3.91380       -0.52020
H          5.08920       -4.26202        1.88174
H          6.54472       -3.39710        2.38811
H          7.99301       -5.11811        1.33063
H          6.59042       -5.95143        0.66747
H          4.70538       -9.58701        2.43482
H          3.97677       -9.41971        0.80947
H          2.02840       -9.72508        2.13111
H          2.11809       -7.97684        1.98972
H          3.59138       -8.20693        4.25313
H          2.78818       -9.73274        4.40677
H          2.39003       -4.82059        4.23487
H          3.20932       -6.23932        3.60571
H          4.30063       -6.68271        5.74240
H          3.26710       -5.48467        6.59734
H          6.34714       -3.06633        4.75761
H          5.87872       -2.07490        6.14844
H          4.19200       -0.85667        4.75293
H          4.63790       -1.81583        3.34343
H          6.52060        0.11715        4.84851
H          5.78541        0.39721        3.25851
H          7.00326       -0.87528        3.46000
H          1.45678       -4.32536        6.04881
H         -0.19821       -4.49211        6.64933
H         -1.13465       -3.97140        4.40564
H          0.47701       -4.00375        3.67479
H          1.17606       -2.02922        5.05073
H         -0.45352       -1.97218        5.79710
H         -1.48271       -6.18281        6.22733
H          0.96428      -10.74409        4.16507
H         -1.11571      -11.91415        4.73826
H         -3.01865      -10.71035        5.79855
H         -2.83608       -8.27940        6.28709
H          7.33309       -6.03540        4.76123
H          7.92914       -4.69798        3.74992
H          9.65746       -6.23546        2.74613
H          9.04285       -7.56065        3.74715
H          9.58809       -6.23543        5.82293
H         10.21848       -4.92396        4.82684
H         11.97311       -6.48768        3.89820
H         11.34333       -7.78401        4.91246
H         11.85147       -6.41040        6.97119
H         12.49549       -5.12698        5.95082
H         14.25563       -6.71277        5.07651
H         13.61314       -7.98829        6.10801
H         14.11858       -6.58883        8.14532
H         14.76750       -5.32139        7.11055
H         15.90959       -8.18499        7.32141
H         16.62154       -6.73175        8.04845
H         16.56520       -6.90505        6.28408
