80

C         14.93899        0.83279       -6.83164
C         14.10755        0.90177       -5.54852
C         14.78260        0.22897       -4.34805
C         13.94093        0.27075       -3.06914
C         14.61365       -0.38787       -1.86002
C         13.74222       -0.37012       -0.60034
C         14.39762       -1.01630        0.62519
C         13.48683       -1.01334        1.85723
C         14.11060       -1.65662        3.10142
C         13.15081       -1.66716        4.29630
C         13.74153       -2.32577        5.54612
C         12.71521       -2.31988        6.71152
C         13.20297       -3.03753        7.90886
N         13.82741       -2.49052        8.95133
N         14.22391       -3.37793        9.89162
C         13.82354       -4.54501        9.44510
N         13.19836       -4.38106        8.19239
C         12.65377       -5.35464        7.34005
N         12.18731       -5.16403        6.14604
N         11.77251       -6.40979        5.69585
C         12.03092       -7.25970        6.66216
O         12.61904       -6.64197        7.75964
S         11.76347       -8.95389        6.77421
C         11.04953       -9.25836        5.10622
C         10.67989      -10.73545        5.01333
C         13.96846       -5.79025       10.24994
C         12.85595       -5.94304       11.31491
O         11.57818       -6.29805       10.73593
C         10.71965       -5.27958       10.44924
O         11.04219       -4.10654       10.42917
C          9.34428       -5.80775       10.12462
S          9.14653       -6.03475        8.31687
C         13.21479       -7.07626       12.27965
O         12.14731       -7.33799       13.20177
C         11.99047       -6.42650       14.21119
O         12.74526       -5.49739       14.40505
C         10.73161       -6.71464       14.99221
S          9.30180       -5.91405       14.16612
H         14.42914        1.32869       -7.66912
H         15.12934       -0.20914       -7.12939
H         15.91591        1.32218       -6.70222
H         13.12419        0.43201       -5.72110
H         13.89711        1.95623       -5.30117
H         15.75853        0.71135       -4.16178
H         15.01040       -0.82184       -4.60098
H         12.97034       -0.22152       -3.25752
H         13.70169        1.32074       -2.82415
H         15.57198        0.11968       -1.65223
H         14.87324       -1.43182       -2.10989
H         12.78825       -0.88406       -0.81349
H         13.47290        0.67333       -0.35911
H         15.33923       -0.48982        0.85993
H         14.68343       -2.05514        0.38344
H         12.54732       -1.53923        1.61282
H         13.19750        0.02577        2.09296
H         15.03593       -1.11896        3.37166
H         14.41459       -2.69159        2.86753
H         12.22807       -2.20327        4.01703
H         12.84727       -0.63265        4.53325
H         14.65638       -1.80148        5.86656
H         14.02303       -3.36441        5.31836
H         11.78224       -2.79103        6.37342
H         12.48746       -1.28539        7.01050
H         14.01223       -1.49927        9.08719
H         11.80635       -8.97132        4.36595
H         10.17760       -8.60233        4.99532
H         11.55320      -11.38662        5.15231
H         10.27061      -10.93530        4.01432
H          9.91515      -11.01271        5.75075
H         14.92463       -5.69608       10.78457
H         14.01789       -6.68287        9.61734
H         12.74034       -4.99560       11.85847
H          8.58805       -5.11142       10.50151
H          9.18996       -6.79576       10.57108
H          9.07422       -4.71810        8.00976
H         14.13334       -6.81169       12.82355
H         13.35566       -8.02154       11.73944
H         10.83196       -6.34609       16.01790
H         10.50289       -7.78673       14.99736
H          9.65903       -4.64264       14.46448
