72

C          0.24793       -0.39587       -0.61860
C          1.71052        0.03818       -0.63334
S          2.61875       -0.97733        0.60206
C          4.18807       -0.27866        0.47004
N          4.62939        0.70268       -0.28463
N          5.97023        0.86881        0.04117
C          6.25352       -0.01617        0.94961
O          5.17507       -0.79937        1.28678
C          7.58270       -0.22376        1.57864
C          8.32320       -1.51968        1.18491
C          9.84700       -1.37453        1.05990
C         10.36321       -0.57619       -0.18012
C         10.63774        0.91937        0.07780
N          9.40891        1.69100        0.26837
C          9.59692        3.06054        0.77071
C          8.26047        3.81331        0.74184
O          8.38304        5.14086        1.22714
O         11.52882       -1.20640       -0.70074
S          7.94153       -2.71380        2.57019
C          7.60800       -1.41805        3.60690
N          7.50751       -0.22747        3.06209
C          7.42599        1.02597        3.83108
C          6.04118        1.68496        3.75307
C          5.98583        3.12317        4.28764
C          5.68168        3.35712        5.81937
C          6.64773        2.81543        6.94737
C          8.16616        3.24906        7.05208
C          8.60325        4.76294        7.19175
C          8.13362        5.65484        8.41113
C          8.48239        5.26441        9.90477
C          9.99214        5.08456       10.31335
F         10.72886        6.13210        9.90925
F         10.05905        4.99004       11.65015
F         10.50226        3.95755        9.77977
F          7.98242        6.27349       10.65899
F          7.82501        4.11881       10.22183
F          8.66174        6.88011        8.17117
F          6.77986        5.75208        8.35291
F          9.96127        4.74800        7.18375
F          8.18376        5.40775        6.07150
F          8.67306        2.55521        8.09666
F          8.79105        2.79665        5.91774
F          6.05241        3.08546        8.12552
F          6.68576        1.44496        6.80250
F          5.51506        4.68388        6.00903
F          4.49035        2.73129        6.06005
F          7.13712        3.80361        3.96069
F          4.95740        3.75429        3.64746
H         -0.30612        0.19671       -1.35823
H         -0.21803       -0.22794        0.36169
H          0.13094       -1.45540       -0.88305
H          1.83525        1.09158       -0.35532
H          2.18278       -0.12794       -1.60931
H          8.22135        0.64211        1.23309
H          7.88914       -1.95051        0.27312
H         10.27250       -2.38352        0.95971
H         10.25831       -0.94484        1.98878
H          9.62215       -0.66563       -0.99392
H         11.24691        1.29316       -0.76541
H         11.25180        1.02264        0.98970
H          8.89320        1.73114       -0.61569
H         10.34288        3.63287        0.18855
H          9.97711        3.00289        1.80550
H          7.48779        3.24477        1.28904
H          7.90702        3.89389       -0.29867
H          8.31485        5.13153        2.19395
H         12.28824       -1.00865       -0.12713
H          7.50526       -1.55477        4.68471
H          8.19000        1.69543        3.41458
H          7.70861        0.79071        4.86077
H          5.28206        1.08096        4.26682
H          5.73298        1.78105        2.70339
