72

O          6.13459        1.79194       -5.03302
C          5.29935        0.71449       -4.59569
C          5.62544       -0.49254       -5.46617
O          5.11848       -1.66187       -4.80717
C          5.64285       -2.86510       -5.31452
O          6.98580       -3.09959       -4.91554
C          7.11998       -3.47191       -3.54144
C          8.61155       -3.40221       -3.17633
C          9.03632       -4.47505       -2.14881
C          8.59803       -4.19963       -0.70373
C          9.16417       -5.23424        0.28661
C          8.43773       -5.37145        1.65358
C          9.19798       -4.91235        2.91804
P          9.52602       -3.12974        2.94544
O          8.47097       -2.33231        2.23732
O          9.73638       -2.80640        4.48504
C          9.92061       -1.41186        4.93377
C          9.96632       -1.41286        6.44426
O         10.90934       -2.85134        2.17195
C         12.21196       -3.31597        2.65248
C         13.26022       -2.30701        2.23366
N          9.00729       -2.79499       -0.32415
C          8.52393       -1.74959       -1.27602
C          9.10037       -2.02363       -2.66620
C          8.88833       -0.84119       -3.61849
C          9.55513        0.48232       -3.20010
C         11.08422        0.47047       -2.99761
S         11.62587        0.13386       -1.29662
O         10.89581        0.99502       -0.38898
O         11.69123       -1.29465       -1.04346
O         13.17405        0.60386       -1.34033
H          5.67501        2.62760       -4.86659
H          4.23099        0.97144       -4.67333
H          5.50588        0.45726       -3.53926
H          6.71871       -0.55439       -5.59156
H          5.17200       -0.39529       -6.46800
H          5.66996       -2.86592       -6.41633
H          4.97638       -3.66123       -4.94264
H          6.73946       -4.50261       -3.40299
H          6.50296       -2.80670       -2.91118
H          9.14927       -3.62663       -4.11126
H         10.13571       -4.56671       -2.16708
H          8.63959       -5.45778       -2.44214
H          7.49743       -4.19972       -0.63622
H         10.24303       -5.04999        0.42335
H          9.10528       -6.20136       -0.23190
H          8.19209       -6.43086        1.80662
H          7.47264       -4.84482        1.61632
H         10.14589       -5.45800        3.04377
H          8.59025       -5.13072        3.80835
H          9.08260       -0.81905        4.54238
H         10.85717       -1.03498        4.49524
H          9.02795       -1.79347        6.86701
H         10.11129       -0.38487        6.80358
H         10.79604       -2.02652        6.81794
H         12.40010       -4.30347        2.20283
H         12.17153       -3.43361        3.74580
H         13.26054       -2.17028        1.14493
H         14.25433       -2.65877        2.54221
H         13.07813       -1.33253        2.70578
H         10.03877       -2.72273       -0.29525
H          8.68853       -2.56542        0.67613
H          8.84054       -0.78582       -0.86037
H          7.42431       -1.76910       -1.26389
H         10.18838       -2.13618       -2.53144
H          7.81569       -0.63993       -3.74224
H          9.25232       -1.13416       -4.61543
H          9.08115        0.90892       -2.30327
H          9.35235        1.21317       -3.99592
H         11.50052        1.46644       -3.20079
H         11.61070       -0.25387       -3.63531
H         13.22375        1.52848       -1.02739
