101

C          4.21936        1.97823       -2.63306
C          4.86097        0.65513       -2.20653
C          4.60174        0.30412       -0.73704
C          5.26281       -1.00351       -0.28912
C          5.02108       -1.33310        1.18765
C          5.75023       -2.59465        1.66298
C          5.53878       -2.88097        3.15286
C          6.38114       -4.06279        3.65037
N          6.29009       -4.25497        5.10783
C          5.45523       -5.12979        5.69989
S          5.33682       -5.31976        7.36753
S          4.50410       -6.11384        4.53446
C          3.47150       -7.10053        5.64679
C          2.22000       -6.34737        6.13636
C          1.92639       -6.63419        7.61353
N          0.86491       -5.74389        8.12060
C         -0.48075       -6.01636        8.12524
N         -1.18004       -4.99194        8.54754
N         -0.24389       -4.03871        8.81667
C          1.00789       -4.46468        8.56356
C          2.26175       -3.68395        8.72743
C          2.56738       -2.73296        7.54445
C          3.69330       -1.75342        7.87847
C          4.12565       -0.96189        6.63322
N          5.02402        0.13601        6.93501
C          4.65314        1.46530        6.97792
C          5.74817        2.20753        7.37721
C          6.82008        1.29706        7.59238
C          6.34712        0.02722        7.31800
C         -0.68008       -2.70401        9.23331
C         -1.26758       -1.91525        8.04163
C         -1.61046       -0.51768        8.42019
C         -0.92323        0.57866        8.07445
F          0.18624        0.52940        7.33255
F         -1.24634        1.81183        8.40327
F         -2.71297       -0.37077        9.19561
C          7.19389       -3.41838        5.91517
C          8.53980       -4.08938        6.20149
C          9.41723       -3.23129        7.11783
C         10.74236       -3.91247        7.47487
C         11.62712       -3.08823        8.41495
C         12.93322       -3.79459        8.79152
C         13.81922       -2.98782        9.74681
C         15.11583       -3.70968       10.12224
H          4.41570        2.19764       -3.69156
H          4.61024        2.81977       -2.04178
H          3.12753        1.95582       -2.49607
H          5.94940        0.70044       -2.38101
H          4.48668       -0.16154       -2.84691
H          3.51239        0.24407       -0.56358
H          4.96207        1.13020       -0.09822
H          6.34984       -0.94146       -0.47281
H          4.89764       -1.83521       -0.91666
H          3.93696       -1.44358        1.36744
H          5.34500       -0.47763        1.80655
H          6.83044       -2.48216        1.46632
H          5.42148       -3.46286        1.06645
H          4.47450       -3.08401        3.35643
H          5.80452       -1.98148        3.73321
H          7.44346       -3.89822        3.41497
H          6.09622       -4.99474        3.14140
H          4.11486       -7.40151        6.48657
H          3.21240       -7.99329        5.06198
H          1.34590       -6.59679        5.51666
H          2.38909       -5.26881        6.02589
H          2.83324       -6.46288        8.20869
H          1.58798       -7.66389        7.78724
H         -0.90181       -6.97108        7.82652
H          3.10759       -4.37744        8.84357
H          2.18670       -3.10890        9.66313
H          1.66346       -2.17213        7.25913
H          2.85292       -3.34211        6.67331
H          4.55682       -2.30263        8.28347
H          3.36472       -1.04544        8.65631
H          3.24450       -0.53150        6.13406
H          4.60189       -1.64104        5.90830
H          3.64713        1.76660        6.70213
H          5.77644        3.28641        7.48956
H          7.82895        1.54226        7.90822
H          6.83918       -0.93702        7.37653
H          0.18842       -2.18450        9.65500
H         -1.42621       -2.83976       10.02578
H         -2.17271       -2.42599        7.67827
H         -0.54326       -1.89521        7.21626
H          6.68112       -3.20025        6.86104
H          7.33459       -2.47368        5.36953
H          9.06664       -4.29153        5.25440
H          8.35181       -5.06491        6.67603
H          8.86101       -3.00812        8.04560
H          9.61801       -2.25647        6.63958
H         11.29978       -4.13348        6.54815
H         10.52905       -4.89115        7.93912
H         11.06227       -2.85033        9.33407
H         11.85814       -2.11690        7.94329
H         13.50208       -4.02387        7.87307
H         12.69970       -4.77177        9.25030
H         13.24760       -2.75576       10.66157
H         14.05831       -2.01455        9.28562
H         14.90935       -4.67211       10.61402
H         15.72594       -3.11002       10.81150
H         15.72897       -3.91832        9.23301
