47

C          3.83353       -1.88260       -1.64263
C          4.73467       -1.14213       -0.68019
O          4.04028        0.08609       -0.26238
P          4.74262        1.11930        0.72324
O          6.07883        1.64211        0.31610
C          3.47739        2.43520        0.76491
C          3.38810        3.16189       -0.61454
C          3.44605        4.64957       -0.47953
N          4.55809        5.34050       -0.31865
C          5.91457        4.75761       -0.32343
C          6.51403        4.70359       -1.73660
C          7.82524        3.91221       -1.71771
S          8.40853        3.70665       -3.41271
O          7.54214        2.76474       -4.09311
O          8.67657        5.01566       -3.95098
O          9.83764        2.98984       -3.15542
C          4.38826        6.81116       -0.36855
C          2.92326        7.10567       -0.04111
S          2.01018        5.58620       -0.52796
O          4.68141        0.43478        2.16061
C          5.80764        0.45812        3.10532
C          6.33279       -0.94696        3.30918
H          4.33351       -2.80242       -1.97511
H          3.61713       -1.27372       -2.53012
H          2.88597       -2.16064       -1.16397
H          5.68743       -0.85285       -1.14699
H          4.94286       -1.73639        0.22228
H          3.78752        3.12047        1.56645
H          2.50373        2.02168        1.05445
H          2.45114        2.88981       -1.11459
H          4.20639        2.83769       -1.27370
H          5.87069        3.74360        0.09936
H          6.52731        5.37593        0.34763
H          6.69153        5.71247       -2.13549
H          5.80281        4.20406       -2.41277
H          7.68457        2.90755       -1.29487
H          8.62417        4.43385       -1.17262
H          9.76097        2.06327       -3.45551
H          4.66258        7.15343       -1.37942
H          5.06881        7.28003        0.35352
H          2.52897        7.95675       -0.60554
H          2.74955        7.26686        1.03009
H          5.39842        0.87958        4.03328
H          6.58192        1.12945        2.70920
H          5.53904       -1.62004        3.65799
H          7.12672       -0.93299        4.06904
H          6.75993       -1.34933        2.38081
