83

C          9.50114       -4.15768      -13.39950
C          9.14094       -4.68516      -12.00831
C          9.07403       -3.58665      -10.94097
C          8.72527       -4.10887       -9.54369
C          8.67431       -3.01470       -8.47237
C          8.35126       -3.54754       -7.07256
C          8.33394       -2.45552       -5.99598
C          7.94584       -2.93724       -4.58783
C          8.80962       -4.07577       -4.00260
C         10.32756       -3.84655       -4.02963
O         11.05983       -5.09549       -3.92693
C         11.11411       -5.43425       -2.56636
N         11.29288       -4.09860       -1.85539
C         10.99321       -3.03397       -2.88741
C         10.26692       -1.82832       -2.27390
C          9.16503       -2.15131       -1.27579
O          9.19082       -3.13325       -0.53214
O          8.21678       -1.22448       -1.26912
C          7.16216       -1.33283       -0.24185
C          7.57535       -0.61773        1.03476
C          6.45463       -0.63257        2.08345
C          6.84738        0.08647        3.37907
C          5.74531        0.07199        4.44413
C          6.13766        0.80911        5.72698
C         12.26424       -6.40638       -2.29902
C         13.64855       -5.75855       -2.29418
O         13.77778       -4.61692       -1.77292
N         14.71147       -6.42952       -2.76837
C         14.66084       -7.76080       -3.39914
C         14.77561       -8.90978       -2.39654
C         16.05015       -5.81944       -2.61501
C         16.45606       -4.97745       -3.82380
H          9.54021       -4.96829      -14.13978
H         10.48320       -3.66176      -13.39761
H          8.76187       -3.42295      -13.75168
H          9.87882       -5.44537      -11.69948
H          8.17054       -5.20800      -12.05142
H          8.33068       -2.82864      -11.24435
H         10.04318       -3.05806      -10.90204
H          9.46456       -4.87421       -9.24650
H          7.75217       -4.62930       -9.58009
H          7.92577       -2.25501       -8.75638
H          9.64385       -2.48581       -8.44553
H          9.08758       -4.32986       -6.81666
H          7.37115       -4.05577       -7.08792
H          7.61817       -1.67173       -6.29081
H          9.31553       -1.94835       -5.97288
H          6.90874       -3.30746       -4.61046
H          7.92758       -2.07431       -3.90586
H          8.64514       -4.98884       -4.59445
H          8.45778       -4.30731       -2.98536
H         10.62391       -3.42317       -4.99771
H         10.16283       -5.86709       -2.21041
H         12.34362       -4.09371       -1.58473
H         10.61155       -3.97640       -1.06807
H         11.96657       -2.69188       -3.26379
H          9.87724       -1.18240       -3.06940
H         10.99780       -1.21583       -1.71993
H          6.95456       -2.39725       -0.07291
H          6.29619       -0.85713       -0.71794
H          7.84604        0.42205        0.79080
H          8.47563       -1.09947        1.44889
H          6.17755       -1.67581        2.31292
H          5.55003       -0.16042        1.66347
H          7.11779        1.13159        3.14745
H          7.76004       -0.37783        3.79238
H          5.48597       -0.97332        4.68266
H          4.82948        0.52205        4.02521
H          7.03909        0.37174        6.18163
H          5.33469        0.76524        6.47499
H          6.34872        1.87070        5.52951
H         12.16507       -7.21885       -3.02671
H         12.12041       -6.85873       -1.30459
H         15.49293       -7.79399       -4.11559
H         13.74721       -7.84625       -4.00108
H         15.69462       -8.82940       -1.80071
H         14.80279       -9.87026       -2.92769
H         13.92370       -8.92918       -1.70357
H         16.75953       -6.64293       -2.45220
H         16.03132       -5.20646       -1.70660
H         16.47533       -5.57189       -4.74771
H         17.46333       -4.56907       -3.66858
H         15.76468       -4.13693       -3.96393
