74

C          0.57686        1.06586        1.62655
C          2.08061        0.89599        1.39665
C          2.93967        1.55751        2.48022
C          4.44567        1.37194        2.26953
C          5.30509        2.02747        3.35531
C          6.80822        1.79744        3.16906
C          7.66784        2.44776        4.25767
C          9.16508        2.15764        4.11196
C         10.01867        2.79986        5.21008
C         11.50837        2.45535        5.11003
C         12.34272        3.06589        6.24059
C         13.81922        2.65724        6.18772
C         14.70065        3.26704        7.27921
S         14.07222        2.92826        8.96595
C         14.43668        1.15377        9.19270
C         13.79666        0.66001       10.48273
C         14.12752       -0.82476       10.76278
N         13.79827       -1.07353       12.16855
O         14.28450        1.45789       11.54852
C         15.46945        3.80643       10.00123
O         15.60566        5.09153        9.59060
C         14.71545        6.07172       10.21662
C         14.82221        7.36442        9.43166
C         14.01432        8.50551       10.06384
C         14.08333        9.80279        9.24741
C         13.28883       10.95032        9.87427
H         -0.01014        0.58230        0.83378
H          0.29337        2.12881        1.64760
H          0.26688        0.62397        2.58546
H          2.35360        1.31306        0.41248
H          2.32645       -0.17852        1.34655
H          2.65687        1.14996        3.46723
H          2.70529        2.63609        2.52272
H          4.73049        1.77835        1.28315
H          4.67545        0.29243        2.22731
H          4.99915        1.64132        4.34382
H          5.09995        3.11222        3.37968
H          7.11889        2.17904        2.18070
H          7.00842        0.71151        3.14855
H          7.32636        2.09656        5.24771
H          7.50288        3.53938        4.25241
H          9.51410        2.50626        3.12453
H          9.32501        1.06497        4.11972
H          9.63934        2.47937        6.19690
H          9.89269        3.89605        5.18034
H         11.90434        2.79295        4.13704
H         11.62897        1.35781        5.12128
H         11.90422        2.76144        7.20775
H         12.26533        4.16656        6.21022
H         14.26284        2.97390        5.22949
H         13.91046        1.55842        6.19862
H         14.70877        4.36655        7.23874
H         15.74109        2.91345        7.23391
H         15.52984        1.02573        9.19921
H         14.01076        0.64896        8.31402
H         12.69506        0.76812       10.39715
H         15.20848       -0.98200       10.63141
H         13.60020       -1.47574       10.04453
H         12.82616       -1.35510       12.29417
H         14.38513       -1.79780       12.57656
H         14.18700        0.86146       12.33359
H         16.37641        3.23283        9.76612
H         15.13141        3.64011       11.03422
H         15.03495        6.19683       11.26420
H         13.68411        5.67783       10.21158
H         14.47506        7.18782        8.39994
H         15.88438        7.64847        9.36319
H         14.38456        8.69670       11.08562
H         12.95876        8.20100       10.17343
H         13.70960        9.60766        8.22796
H         15.13845       10.10167        9.13051
H         12.22427       10.69299        9.97512
H         13.35246       11.85815        9.26025
H         13.66732       11.20067       10.87592
