81

C          3.97544      -14.33836       -0.60084
C          5.45470      -13.98534       -0.77482
C          5.68128      -12.65692       -1.50567
C          7.15929      -12.30292       -1.70068
C          7.38215      -10.94473       -2.37479
C          8.85841      -10.60489       -2.60902
C          9.07566       -9.20890       -3.20262
C         10.54504       -8.87032       -3.47878
C         10.75170       -7.43593       -3.97828
C         12.20948       -7.09538       -4.31010
C         12.40203       -5.61640       -4.66776
C         13.82536       -5.21872       -5.01411
O         14.18374       -5.82631       -6.28426
C         15.45732       -5.48648       -6.71544
N         15.56252       -6.04546       -8.11592
C         14.70548       -5.26951       -9.08802
C         14.36298       -6.12813      -10.30873
O         14.01086       -7.40516       -9.75047
C         13.23711       -5.49602      -11.11726
C         17.00585       -6.19885       -8.54611
C         17.64351       -7.45108       -7.95126
C         19.17488       -7.38712       -8.10144
S         20.08705       -8.24916       -6.79688
C         20.00361       -7.06158       -5.45027
S         19.10617       -5.64296       -5.54025
N         20.72907       -7.42036       -4.37269
C         21.55764       -8.63795       -4.31654
C         20.84017       -9.83409       -3.68697
C         20.74952       -6.57777       -3.16095
C         21.85374       -5.52102       -3.19542
H          3.84728      -15.29084       -0.06840
H          3.46960      -14.43185       -1.57351
H          3.44421      -13.56413       -0.02726
H          5.96399      -14.79429       -1.32597
H          5.94259      -13.94164        0.21370
H          5.18234      -11.84631       -0.94526
H          5.18128      -12.69252       -2.48980
H          7.64764      -13.09363       -2.29738
H          7.66816      -12.30862       -0.72056
H          6.92065      -10.15451       -1.75666
H          6.84576      -10.92200       -3.33988
H          9.30626      -11.36320       -3.27549
H          9.40678      -10.68215       -1.65362
H          8.65323       -8.45565       -2.51447
H          8.49897       -9.11526       -4.13972
H         10.95200       -9.58220       -4.21867
H         11.13542       -9.02157       -2.55792
H         10.38017       -6.73281       -3.21219
H         10.12580       -7.26386       -4.87147
H         12.55653       -7.73047       -5.14168
H         12.85019       -7.34208       -3.44522
H         12.09299       -4.98885       -3.81559
H         11.74441       -5.33429       -5.50691
H         14.53924       -5.55833       -4.24178
H         13.91805       -4.12220       -5.11399
H         16.27051       -5.92888       -6.11174
H         15.62106       -4.39346       -6.78696
H         15.12372       -6.98658       -8.09675
H         15.24043       -4.35293       -9.36682
H         13.78834       -5.01757       -8.54014
H         15.25517       -6.24200      -10.95302
H         13.70134       -7.99712      -10.45414
H         12.32349       -5.41036      -10.51337
H         13.01336       -6.10340      -12.00461
H         13.52215       -4.49540      -11.47219
H         17.53337       -5.29822       -8.20094
H         17.01895       -6.21463       -9.64283
H         17.24271       -8.35646       -8.43155
H         17.40697       -7.50639       -6.88033
H         19.52657       -6.34567       -8.09155
H         19.51633       -7.86564       -9.03022
H         22.45780       -8.38228       -3.73886
H         21.90222       -8.87438       -5.33297
H         20.51822       -9.61548       -2.66002
H         21.52201      -10.69376       -3.64827
H         19.95732      -10.12333       -4.27137
H         20.88289       -7.25665       -2.30656
H         19.76442       -6.10307       -3.07183
H         22.84843       -5.97480       -3.30225
H         21.84640       -4.94851       -2.25814
H         21.69683       -4.82185       -4.02609
