59

C          9.07999       -1.47682        2.44096
C          8.66714       -0.02925        2.16505
C          9.13461        0.48712        0.79894
C          8.71236        1.93674        0.53197
C          9.26608        2.53278       -0.75102
O          8.73408        1.81610       -1.88041
C          9.20970        2.31243       -3.10808
C          8.60285        1.41018       -4.19248
C          9.01115        1.81917       -5.59611
N         10.39893        1.67325       -5.88394
O          8.46079        3.04483       -5.94419
C          8.46332        3.19404       -7.37480
C          8.25458        1.76935       -7.94338
N          8.28758        0.86810       -6.73534
C          6.94926        0.27015       -6.41807
O          6.63153       -0.48319       -7.54141
C          5.35708       -1.17844       -7.46418
C          5.15661       -1.90369       -8.78211
C          3.85327       -2.71091       -8.83369
C          3.67284       -3.43234      -10.17460
C          2.38679       -4.26093      -10.26373
C          2.22820       -4.97239      -11.60990
H          8.73890       -1.80879        3.43075
H         10.17350       -1.59420        2.41158
H          8.65305       -2.16489        1.69591
H          9.07057        0.62588        2.95548
H          7.56970        0.06057        2.23128
H          8.73992       -0.16572        0.00318
H         10.23526        0.41173        0.73955
H          9.05507        2.58033        1.35935
H          7.61301        2.01657        0.51670
H         10.37207        2.46414       -0.76957
H          8.99192        3.60100       -0.83672
H         10.31891        2.28383       -3.13948
H          8.90508        3.36500       -3.26782
H          7.51043        1.45641       -4.09499
H          8.91746        0.37218       -4.00075
H         10.94311        1.31835       -5.10233
H         10.83193        2.51467       -6.25735
H          9.40790        3.63469       -7.72990
H          7.64541        3.87951       -7.62077
H          9.05303        1.47179       -8.62908
H          7.29325        1.63353       -8.44638
H          8.94472        0.09746       -6.90586
H          6.24222        1.09959       -6.22513
H          7.05761       -0.34555       -5.50807
H          4.55561       -0.43993       -7.28090
H          5.38255       -1.88184       -6.61261
H          6.01610       -2.57274       -8.94808
H          5.16935       -1.16300       -9.59795
H          2.99278       -2.04278       -8.65754
H          3.84112       -3.45022       -8.01460
H          4.54200       -4.08971      -10.35222
H          3.68471       -2.68930      -10.99124
H          1.51802       -3.60463      -10.08734
H          2.37577       -5.00404       -9.44875
H          2.20111       -4.25329      -12.44192
H          1.29932       -5.55688      -11.64703
H          3.06284       -5.66397      -11.79756
