97

C          1.09473        0.97150       -3.48645
C          2.61311        0.99795       -3.29459
C          3.10183        2.20730       -2.48978
C          4.61929        2.23647       -2.28469
C          5.10836        3.43308       -1.46232
C          6.62433        3.44206       -1.24466
C          7.12539        4.62403       -0.40860
C          8.64165        4.60894       -0.19229
C          9.16485        5.79099        0.62960
C         10.68443        5.76386        0.82214
C         11.23027        6.97297        1.58846
C         12.75351        6.94012        1.75033
C         13.31837        8.18954        2.43418
C         14.84970        8.14211        2.56654
C         15.38144        9.45472        3.13993
S         17.17632        9.39331        3.50563
C         17.90992        9.27796        1.84290
C         19.43939        9.15239        1.90038
O         19.93452        9.04563        0.56034
C         20.01858       10.24791       -0.12446
O         19.69045       11.29771        0.38702
C         20.50849       10.03571       -1.53131
C         19.51194        9.22144       -2.38850
C         18.11095        9.83467       -2.45281
C         17.55315       11.11498        4.01234
C         16.94265       11.43859        5.37596
C         17.31388       12.85735        5.83738
C         16.66065       13.20660        7.18006
C         16.95569       14.63264        7.65605
C         16.25909       14.97546        8.97775
C         16.50004       16.41424        9.44580
C         15.76982       16.76200       10.74736
C         15.97897       18.21102       11.20156
C         15.23270       18.55470       12.49320
H          0.77534        0.09198       -4.06233
H          0.74441        1.86537       -4.02400
H          0.57093        0.94302       -2.51922
H          3.11062        0.99215       -4.27933
H          2.93724        0.07254       -2.78865
H          2.60064        2.21512       -1.50556
H          2.78261        3.13543       -2.99644
H          5.12131        2.23996       -3.26836
H          4.93700        1.30206       -1.78891
H          4.59891        3.43466       -0.48261
H          4.80390        4.36989       -1.96155
H          7.13347        3.44833       -2.22464
H          6.92600        2.49880       -0.75586
H          6.61498        4.62296        0.57049
H          6.83477        5.56966       -0.89935
H          9.14773        4.59892       -1.17382
H          8.92872        3.66478        0.30318
H          8.66932        5.80284        1.61600
H          8.87691        6.73534        0.13498
H         11.17358        5.71296       -0.16662
H         10.97049        4.83621        1.34798
H         10.75492        7.02719        2.58304
H         10.93949        7.89851        1.06146
H         13.22112        6.83114        0.75614
H         13.04454        6.04337        2.32387
H         12.86778        8.30706        3.43397
H         13.02823        9.08386        1.85666
H         15.28673        7.95382        1.57363
H         15.14290        7.30025        3.21392
H         14.92824        9.67076        4.11838
H         15.21152       10.31324        2.47327
H         17.60567       10.16611        1.27310
H         17.47300        8.37611        1.39394
H         19.74608        8.22867        2.40633
H         19.89592       10.02235        2.39308
H         21.47506        9.51178       -1.49287
H         20.67109       11.03192       -1.96221
H         19.46026        8.19219       -2.00391
H         19.93379        9.15200       -3.40150
H         17.62755        9.85912       -1.46325
H         17.46004        9.25353       -3.11885
H         18.13777       10.86759       -2.82791
H         17.20298       11.77946        3.20869
H         18.65194       11.15462        4.04309
H         17.28595       10.70331        6.12139
H         15.84515       11.36052        5.33075
H         16.99877       13.58651        5.07196
H         18.41015       12.94559        5.91765
H         16.99496       12.48612        7.94631
H         15.56788       13.07391        7.09419
H         16.63738       15.34949        6.87928
H         18.04550       14.76745        7.76625
H         16.59481       14.27344        9.76092
H         15.17314       14.80761        8.86784
H         16.18075       17.11241        8.65215
H         17.58348       16.58118        9.57683
H         16.10049       16.07694       11.54795
H         14.68887       16.57454       10.61906
H         15.65535       18.89210       10.39628
H         17.05784       18.39657       11.33754
H         14.14772       18.41349       12.37703
H         15.40080       19.59876       12.78994
H         15.56037       17.91587       13.32682
