84

C         22.58138        3.72775        5.85202
C         21.53765        4.68707        5.27388
C         20.81984        4.12762        4.04056
C         19.76574        5.07264        3.45423
C         19.05113        4.49731        2.22764
C         17.97259        5.41635        1.64464
C         17.26531        4.81310        0.42745
C         16.15150        5.69098       -0.15160
C         15.46634        5.06048       -1.36759
C         14.31335        5.89260       -1.93540
C         13.69422        5.26720       -3.19036
C         12.51043        6.03640       -3.76357
O         12.79341        7.43611       -4.04279
C         13.72118        7.63023       -5.05321
N         13.59797        9.02927       -5.49838
N         12.92483        9.36318       -6.57563
N         12.96598       10.67060       -6.70230
C         13.67623       11.17187       -5.66927
N         14.09799       10.14288       -4.89819
C         14.93470       10.14070       -3.68320
C         14.23029       10.74403       -2.45503
O         13.07972        9.94685       -2.22058
C         11.92683       10.67661       -1.74001
C         11.33875       11.57683       -2.80002
C         10.77170       11.01794       -3.95750
C         10.25325       11.83873       -4.96042
C         10.29558       13.23102       -4.81895
C         10.85807       13.79794       -3.67318
C         11.37552       12.97232       -2.66809
C         15.18745       10.73876       -1.26239
C         13.93446       12.60974       -5.43147
C         13.50300       13.49301       -6.60481
O         13.69812       14.81911       -6.16876
C         13.25402       15.79025       -7.13024
C         13.46403       17.17321       -6.54781
H         23.07610        4.15361        6.73570
H         23.36320        3.49494        5.11374
H         22.12225        2.77511        6.15590
H         22.02028        5.64371        5.01055
H         20.79051        4.92966        6.04858
H         20.34057        3.16805        4.30396
H         21.56654        3.88594        3.26343
H         20.24223        6.03209        3.18528
H         19.01946        5.31406        4.23165
H         18.59274        3.52935        2.49600
H         19.79643        4.26912        1.44526
H         18.42511        6.38472        1.36604
H         17.22600        5.64468        2.42558
H         16.84031        3.83284        0.70523
H         18.01051        4.60342       -0.36012
H         16.56637        6.67681       -0.43215
H         15.39880        5.89155        0.63094
H         15.08800        4.06066       -1.09359
H         16.21775        4.88769       -2.15878
H         14.66869        6.91427       -2.15934
H         13.53144        6.02134       -1.16751
H         13.32812        4.25221       -2.96208
H         14.46957        5.12113       -3.96374
H         11.68609        6.09176       -3.04082
H         12.13221        5.56174       -4.68650
H         13.51666        7.04252       -5.96595
H         14.77256        7.46831       -4.74822
H         15.85107       10.69553       -3.92813
H         15.20386        9.09868       -3.47381
H         13.93735       11.78252       -2.68823
H         12.18343       11.25527       -0.83589
H         11.21882        9.89019       -1.44664
H         10.73625        9.93106       -4.06486
H          9.80932       11.39455       -5.85193
H          9.88159       13.87156       -5.59853
H         10.89352       14.88165       -3.55898
H         11.80181       13.41783       -1.76620
H         15.49943        9.71387       -1.01716
H         14.68262       11.15772       -0.38310
H         16.08087       11.34968       -1.45457
H         14.99952       12.77706       -5.20108
H         13.36558       12.92736       -4.54126
H         12.44242       13.30056       -6.84933
H         14.10009       13.26868       -7.51061
H         12.18562       15.61141       -7.35787
H         13.82176       15.66216       -8.07119
H         12.89974       17.29508       -5.61378
H         13.12107       17.93638       -7.25865
H         14.52627       17.35375       -6.33761
