81

C          3.35069       -2.72652       -5.27630
C          3.08244       -1.83793       -4.07911
O          4.21181       -1.92016       -3.18912
C          4.06869       -1.12054       -2.02782
C          5.14201       -1.51641       -1.01642
C          6.54915       -1.67374       -1.48812
N          7.43479       -2.44345       -0.83057
N          8.61392       -2.30529       -1.41060
N          8.48433       -1.47962       -2.41632
N          7.18921       -1.07867       -2.51943
C          6.72681       -0.08096       -3.47476
C          6.70271        1.29936       -2.75583
O          7.28087        1.40546       -1.67576
N          6.03555        2.28816       -3.39716
C          5.93831        3.61094       -2.74802
C          4.57676        3.87395       -2.09279
C          4.24480        2.94532       -0.91834
C          2.89396        3.26078       -0.27214
C          5.31421        2.08081       -4.65313
C          9.58854       -1.02445       -3.28340
C         10.92109       -1.64674       -2.87398
C         11.99803       -1.18589       -3.86879
S         13.67863       -1.37821       -3.23940
C         13.84270        0.11210       -2.23087
S         12.62943        1.25997       -2.11870
N         15.03202        0.19092       -1.59711
C         15.30750        1.31434       -0.67510
C         14.71120        1.13698        0.72792
C         15.20106       -0.09177        1.50198
C         14.61227       -0.17093        2.91275
C         16.10551       -0.80516       -1.78842
C         16.98904       -0.58411       -3.02702
C         17.78731        0.72437       -3.04280
C         18.71258        0.82863       -4.25822
H          2.49666       -2.69719       -5.96565
H          3.50212       -3.76744       -4.96277
H          4.24249       -2.39543       -5.82617
H          2.17463       -2.15835       -3.53694
H          2.93009       -0.78455       -4.38692
H          3.08274       -1.27728       -1.55492
H          4.12662       -0.04162       -2.27737
H          4.88886       -2.47644       -0.54550
H          5.16213       -0.76673       -0.20646
H          5.75001       -0.43263       -3.83255
H          7.41214       -0.06947       -4.33150
H          6.14792        4.36796       -3.51813
H          6.74034        3.65304       -2.00114
H          3.77518        3.82488       -2.85043
H          4.58777        4.91900       -1.74291
H          5.04897        3.00915       -0.16827
H          4.24519        1.89775       -1.26626
H          2.86835        4.28906        0.11595
H          2.68604        2.58707        0.56989
H          2.06823        3.15988       -0.99207
H          5.93614        1.57259       -5.40249
H          5.04925        3.06061       -5.06394
H          4.37937        1.51415       -4.51409
H          9.64611        0.07156       -3.18468
H          9.31899       -1.28976       -4.31786
H         10.85528       -2.74221       -2.84992
H         11.17806       -1.29704       -1.86613
H         11.88177       -0.11766       -4.11061
H         11.97564       -1.77562       -4.79683
H         14.90807        2.22768       -1.13546
H         16.39952        1.40879       -0.61599
H         13.61312        1.12043        0.64988
H         14.96298        2.05190        1.29071
H         16.30300       -0.07684        1.56498
H         14.93548       -1.00831        0.94931
H         14.88680        0.71090        3.51010
H         14.97098       -1.05986        3.44886
H         13.51375       -0.21953        2.88301
H         15.64742       -1.80603       -1.82326
H         16.72140       -0.77975       -0.87993
H         16.37106       -0.65093       -3.93625
H         17.68367       -1.44015       -3.06939
H         18.38512        0.80447       -2.11879
H         17.09496        1.58178       -3.03906
H         19.44666        0.00972       -4.27341
H         19.27019        1.77457       -4.25590
H         18.14330        0.78069       -5.19808
