65

O          0.82026        0.11047        0.11580
C          2.23300       -0.00735        0.01776
C          2.77863        1.39503       -0.29820
C          4.26914        1.35889       -0.48029
C          4.80793        0.85085       -1.69709
C          6.16348        0.68066       -1.93107
C          6.66850        0.11219       -3.23505
C          5.71052       -0.84270       -3.95285
O          4.79693       -1.44885       -3.42904
O          6.06588       -0.93737       -5.24355
C          5.28261       -1.85923       -6.07285
C          6.09091       -2.18305       -7.31369
C          5.29900       -3.07402       -8.27924
C          6.10902       -3.50681       -9.50538
C          5.30155       -4.35535      -10.49215
C          6.12344       -4.86740      -11.67904
C          5.29775       -5.66046      -12.69826
C          6.13241       -6.21903      -13.85304
C          7.07550        1.08463       -0.90899
C          6.53829        1.61866        0.32309
C          5.13957        1.73663        0.52127
C          7.43947        2.01185        1.31591
N          8.76041        1.89057        1.12940
C          9.33907        1.38348       -0.01674
C          8.48348        0.99002       -1.02947
C         10.80555        1.29326       -0.05025
C         11.50273        1.54404       -1.24647
C         12.89272        1.45441       -1.28001
C         13.60456        1.11572       -0.12512
C         12.92086        0.86352        1.06750
C         11.53002        0.95008        1.10823
H          0.44354       -0.76799        0.27784
H          2.52912       -0.71393       -0.78043
H          2.67925       -0.36686        0.96500
H          2.49845        2.07871        0.51530
H          2.29001        1.75541       -1.21619
H          4.10341        0.55688       -2.47402
H          7.59071       -0.46861       -3.07648
H          6.94379        0.91597       -3.93585
H          4.33422       -1.35633       -6.31680
H          5.05094       -2.75228       -5.47623
H          7.02471       -2.68660       -7.01527
H          6.38076       -1.24726       -7.81760
H          4.39171       -2.53903       -8.60912
H          4.94393       -3.97277       -7.74571
H          6.99543       -4.07435       -9.17210
H          6.49868       -2.61318      -10.02311
H          4.44745       -3.76364      -10.86547
H          4.86095       -5.21554       -9.95809
H          6.94749       -5.50047      -11.30480
H          6.60675       -4.01412      -12.18722
H          4.49862       -5.01315      -13.09758
H          4.78378       -6.48871      -12.18136
H          6.63682       -5.41391      -14.40800
H          5.51087       -6.77515      -14.56780
H          6.91132       -6.90440      -13.48682
H          4.76315        2.12792        1.46833
H          7.11716        2.43724        2.26585
H          9.39341        2.21633        1.86049
H          8.93180        0.57326       -1.92860
H         10.95752        1.84238       -2.14284
H         13.42388        1.66107       -2.20908
H         14.69195        1.04567       -0.15386
H         13.47052        0.58218        1.96581
H         11.01110        0.69361        2.03522
