45

C          1.54595       -0.66418       -0.24328
C          2.99685       -0.22022       -0.10708
C          3.94143       -1.34672        0.42027
N          3.57550       -1.81417        1.75999
N          3.78732       -1.09930        2.82992
N          3.17102       -1.65015        3.85726
C          2.53015       -2.75422        3.40235
N          2.74787       -2.88036        2.05881
C          2.49665       -3.98053        1.12211
C          3.65037       -4.96784        1.03463
O          4.96846       -4.41599        0.97646
C          4.60750       -5.22232        2.12050
N          1.84114       -3.57701        4.22764
N          0.95239       -4.50587        3.66630
N          1.69760       -3.24807        5.58727
O          3.45920        0.14534       -1.38779
C          4.49817        1.16310       -1.41302
C          4.72442        1.56979       -2.83987
C          5.74163        0.97314       -3.59675
C          5.93321        1.33228       -4.93245
C          5.10691        2.29346       -5.52108
C          4.09084        2.89581       -4.77216
C          3.90129        2.53540       -3.43763
H          1.11829       -0.98639        0.71694
H          1.45640       -1.48022       -0.97445
H          0.94367        0.17541       -0.60959
H          3.06944        0.63111        0.59735
H          4.96813       -0.97587        0.52054
H          3.95552       -2.20178       -0.26287
H          2.28047       -3.54466        0.13849
H          1.59216       -4.48260        1.48622
H          3.45033       -5.77126        0.31515
H          4.53876       -4.67711        3.06675
H          5.10235       -6.19510        2.17586
H          1.08457       -5.39739        4.15086
H         -0.00814       -4.19882        3.85519
H          1.42661       -2.26558        5.69210
H          2.58743       -3.38783        6.07162
H          5.43194        0.76634       -0.97524
H          4.16382        2.01875       -0.80048
H          6.39037        0.22513       -3.13519
H          6.72839        0.86383       -5.51322
H          5.25720        2.57877       -6.56282
H          3.45097        3.65171       -5.22854
H          3.11174        3.00946       -2.85057
