50

C          3.90432        2.07583        2.22976
C          3.72395        1.92990        0.91518
C          3.89563        0.61532        0.19622
C          5.08332        0.61168       -0.70624
N          6.02564        1.57241       -0.77592
C          6.97821        1.18821       -1.69534
N          6.65383        0.01801       -2.20149
N          5.48190       -0.32363       -1.58082
C          4.89653       -1.64493       -1.83967
C          5.78526       -2.78124       -1.31732
P          6.06117       -2.69600        0.48931
O          4.90060       -2.15707        1.23981
O          6.44327       -4.15815        0.99179
C          7.61490       -4.89735        0.51530
C          7.91984       -5.98696        1.51998
O          7.40177       -1.80166        0.54218
C          7.91813       -1.38552        1.85051
C          7.66938        0.09428        2.07140
C          8.18796        1.99111       -2.03046
C          7.93702        3.22181       -2.93313
C          6.82082        4.18593       -2.45990
C          6.84734        4.48286       -1.03215
C          6.85833        4.65032        0.16928
H          3.74996        3.03763        2.71888
H          4.18636        1.23462        2.86689
H          3.41692        2.78810        0.30843
H          3.00080        0.38294       -0.40630
H          4.02564       -0.22779        0.90036
H          6.03500        2.45804       -0.24881
H          4.75907       -1.72800       -2.92557
H          3.91382       -1.66557       -1.35442
H          6.74741       -2.80282       -1.84619
H          5.26944       -3.73197       -1.51634
H          8.45706       -4.19774        0.40177
H          7.37208       -5.31899       -0.47283
H          8.16570       -5.56106        2.50111
H          8.77974       -6.57654        1.17363
H          7.06365       -6.66331        1.63692
H          8.99152       -1.61674        1.82719
H          7.45002       -1.98950        2.64160
H          8.12863        0.69430        1.27355
H          8.11406        0.40615        3.02668
H          6.59358        0.30917        2.11149
H          8.90009        1.31853       -2.52433
H          8.64800        2.32006       -1.08575
H          7.68837        2.88833       -3.95037
H          8.88717        3.76928       -2.99893
H          5.82983        3.77263       -2.71347
H          6.89814        5.12703       -3.02630
H          6.88448        4.88536        1.21400
