64

C          2.11665        0.56219        5.79072
C          3.57029        0.74357        5.34837
C          3.76814        1.92411        4.38906
C          5.22080        2.07606        3.92289
C          5.41000        3.22060        2.94236
O          6.78794        3.23660        2.52713
C          7.06274        4.16553        1.50535
C          8.52170        3.92155        1.09482
O          9.01203        4.82569        0.12348
C          8.33840        4.74081       -1.12352
N          8.32234        3.31719       -1.52446
C          8.55722        2.29763       -0.67988
N          8.59174        1.03988       -1.17600
N          8.73080        2.53351        0.62414
C          9.24048        1.51539        1.56835
C         10.72623        1.17676        1.38087
C         11.67075        2.38077        1.47317
C         13.13284        2.01399        1.19798
C         14.08248        3.21648        1.24652
C         15.52481        2.85735        0.88221
C          9.07059        5.57594       -2.15886
C          8.84902        7.11577       -1.99929
N          9.43314        7.71251       -0.79378
N          9.40111        7.71812       -3.21269
N          7.40799        7.35391       -1.89246
H          2.01086       -0.28990        6.47547
H          1.45643        0.37989        4.92977
H          1.74144        1.45510        6.31210
H          3.92568       -0.18022        4.86055
H          4.21292        0.88456        6.23352
H          3.43601        2.85447        4.88137
H          3.11071        1.79284        3.51174
H          5.55487        1.14303        3.43863
H          5.88137        2.23555        4.79040
H          5.15123        4.19250        3.40281
H          4.76534        3.08812        2.05171
H          6.96800        5.21456        1.84701
H          6.37493        4.02384        0.64833
H          9.16703        4.05147        1.97276
H          7.30314        5.11214       -1.03468
H          8.03491        3.10359       -2.47368
H          8.71936        0.88824       -2.16849
H          8.79581        0.25942       -0.56685
H          8.60154        0.61972        1.50883
H          9.05200        1.92698        2.56708
H         10.88686        0.66845        0.41493
H         10.98219        0.43315        2.15266
H         11.58531        2.84092        2.47315
H         11.36131        3.15425        0.74918
H         13.20295        1.53704        0.20390
H         13.46715        1.25145        1.92220
H         14.05350        3.66279        2.25462
H         13.71199        3.99692        0.55932
H         15.93463        2.10059        1.56687
H         16.18117        3.73634        0.92980
H         15.58933        2.44967       -0.13768
H          8.69180        5.29259       -3.15445
H         10.14414        5.33414       -2.12867
H         10.45068        7.64526       -0.81599
H          9.11593        7.23448        0.05137
H         10.37504        7.44329       -3.36455
H          9.39187        8.73623       -3.11362
H          7.26539        8.29734       -1.52729
H          6.99173        7.32066       -2.82494
