63

C         11.57949        2.25913       -3.63137
C         10.52239        1.42005       -2.90933
C         10.87644        1.13318       -1.44588
C          9.83880        0.27274       -0.71785
C         10.19335        0.01200        0.74938
C          9.17830       -0.87270        1.47994
C          9.54072       -1.09553        2.95293
C          8.51415       -1.97170        3.68127
C          8.90924       -2.38067        5.12775
N          7.74720       -3.10007        5.71066
C          7.77863       -4.39861        5.66555
S          9.21749       -5.10456        5.11650
C         10.06805       -3.43701        5.11226
C         11.10392       -3.41185        6.24929
C         12.10580       -4.54168        6.13721
C         13.09042       -4.52596        5.13617
C         13.99721       -5.58015        5.01715
C         13.93202       -6.66312        5.89968
C         12.96075       -6.68523        6.90280
C         12.05308       -5.62957        7.02083
C          9.18948       -1.14993        6.01931
C          7.95240       -0.27361        6.19152
O          6.82525       -0.72906        6.38080
O          8.25302        1.01720        6.13591
C          7.16679        1.98688        6.37643
C          7.10139        2.37695        7.84515
C          6.03883        3.45651        8.07992
H         11.29383        2.45573       -4.67347
H         12.55420        1.74916       -3.64485
H         11.72323        3.23201       -3.13789
H         10.38121        0.46467       -3.44266
H          9.54816        1.93573       -2.95188
H         11.00100        2.08971       -0.90761
H         11.86017        0.63305       -1.40069
H          9.72768       -0.69107       -1.24508
H          8.85100        0.76278       -0.77315
H         10.28351        0.97662        1.27921
H         11.19130       -0.45752        0.80568
H          9.10130       -1.84767        0.96854
H          8.17577       -0.41602        1.41624
H          9.62060       -0.11590        3.45103
H         10.54586       -1.54928        3.00757
H          8.33643       -2.89536        3.10600
H          7.54608       -1.44809        3.72086
H          6.98550       -2.48522        6.07182
H          6.92237       -5.00158        5.97289
H         10.58492       -3.38619        4.14586
H         10.59924       -3.45932        7.22600
H         11.62838       -2.44370        6.19912
H         13.16377       -3.67547        4.45318
H         14.76293       -5.55200        4.24158
H         14.64413       -7.48375        5.81059
H         12.91394       -7.52133        7.60118
H         11.30288       -5.64618        7.81455
H         10.01186       -0.55311        5.61206
H          9.48406       -1.46978        7.03046
H          6.22604        1.54525        6.02362
H          7.44002        2.83761        5.73974
H          8.09031        2.73965        8.16399
H          6.87118        1.48456        8.44753
H          6.25320        4.36652        7.50153
H          6.00554        3.73910        9.13951
H          5.03621        3.10560        7.79804
