44

C          3.23383       -2.44897        0.01269
C          3.31608       -1.24891        0.13242
C          3.41232        0.19365        0.28045
C          3.67441        0.94373       -1.01084
N          3.70794        2.27029       -0.89300
N          3.93281        2.94324       -2.01521
C          4.13202        2.46533       -3.25492
C          4.10994        1.05258       -3.40406
C          3.87333        0.30815       -2.25514
C          4.33119        0.42082       -4.74172
C          4.35008        3.43918       -4.37288
C          4.31762        4.92881       -4.01040
C          4.46797        5.82703       -5.24697
C          4.48007        7.31987       -4.90239
C          4.52080        8.21414       -6.14630
C          4.59498        9.69361       -5.77602
O          4.49057       10.54202       -6.94081
C          5.66187       10.77363       -7.61527
O          6.73016       10.28981       -7.28926
C          5.41930       11.68225       -8.76213
C          6.42383       12.06359       -9.55910
H          3.15327       -3.51441       -0.06154
H          4.21424        0.45599        0.99253
H          2.48731        0.59933        0.72518
H          3.94627        3.95903       -1.88247
H          3.83526       -0.78277       -2.29129
H          3.58068        0.76309       -5.47013
H          4.27635       -0.67062       -4.67522
H          5.31586        0.69555       -5.14925
H          3.59114        3.22311       -5.14636
H          5.31316        3.18663       -4.85138
H          5.12870        5.16425       -3.29820
H          3.36168        5.18048       -3.51595
H          3.64094        5.61550       -5.94558
H          5.39808        5.56542       -5.77828
H          5.35119        7.53752       -4.26099
H          3.58549        7.56513       -4.30341
H          3.62176        8.04350       -6.75990
H          5.39453        7.96058       -6.76536
H          5.53571        9.91673       -5.25188
H          3.74492        9.98701       -5.14436
H          4.39435       12.02294       -8.91412
H          7.43932       11.70816       -9.37631
H          6.25841       12.73554      -10.40055
