39

C          5.12169       -1.61575       -2.63970
C          4.82010       -0.73944       -1.42282
C          5.08583       -1.44378       -0.08504
C          4.82739       -0.53580        1.12537
C          4.98314       -1.20826        2.49019
N          6.36764       -1.71654        2.63787
C          6.92965       -2.29964        3.69637
N          8.07508       -3.00954        3.69922
N          8.42694       -3.46873        4.94188
C          7.49853       -3.04189        5.74522
N          6.52020       -2.30529        5.01271
C          5.45809       -1.67064        5.55742
C          4.53713       -1.14904        6.13728
C          7.45093       -3.25738        7.21130
C          8.60063       -2.54402        7.98957
C          8.45906       -1.02201        8.02995
O          8.36910       -0.52568        6.68935
O          8.69210       -3.06738        9.30181
H          4.91194       -1.07918       -3.57381
H          4.51127       -2.53044       -2.63949
H          6.17877       -1.92000       -2.66565
H          3.76692       -0.41517       -1.44904
H          5.42262        0.18272       -1.47070
H          6.13502       -1.80180       -0.09914
H          4.46018       -2.35015       -0.01116
H          3.79501       -0.15701        1.08003
H          5.47986        0.35175        1.08136
H          4.27799       -2.04883        2.59513
H          4.78487       -0.48956        3.29313
H          6.84358       -1.87893        1.75205
H          8.65912       -3.24067        2.90209
H          3.71181       -0.66976        6.62364
H          7.56215       -4.33336        7.40493
H          6.47153       -2.94444        7.60182
H          9.55034       -2.80704        7.49962
H          9.33475       -0.61035        8.55607
H          7.55035       -0.75531        8.60768
H          8.49922        0.43412        6.70984
H          7.95808       -2.72684        9.84115
