59

Br         5.03736        1.92578       -0.18684
C          3.70067        0.69301        0.56335
C          4.27044       -0.70210        0.76615
C          4.67853       -1.38070       -0.56241
C          5.28141       -2.72843       -0.38047
N          6.60288       -3.04432       -0.26705
C          6.66761       -4.40914       -0.09310
N          5.47180       -4.94555       -0.09424
N          4.62194       -3.89131       -0.26903
C          3.16999       -4.12902       -0.35233
C          2.68540       -4.47068       -1.76849
C          3.14191       -5.82669       -2.32562
C          2.63123       -7.04091       -1.54169
C          2.96957       -8.37523       -2.21651
C          2.46523       -9.58736       -1.43157
C          7.75262       -2.11722       -0.34304
C          8.24589       -1.59941        1.01770
P          9.21013       -2.81327        1.99577
O          8.64643       -4.18825        1.93250
O         10.66029       -2.58849        1.37827
C         11.78951       -3.41988        1.83142
C         12.98427       -3.10834        0.95890
O          9.33379       -2.19092        3.46308
C          8.40928       -2.58270        4.53311
C          9.03550       -2.21060        5.85901
H          2.85797        0.70910       -0.13712
H          3.39382        1.13861        1.51423
H          3.50428       -1.30868        1.27707
H          5.13493       -0.64989        1.44338
H          5.39051       -0.72861       -1.08979
H          3.80074       -1.47468       -1.21825
H          7.59759       -4.93989        0.08163
H          2.67572       -3.22438        0.02346
H          2.96589       -4.94393        0.35288
H          2.97954       -3.65845       -2.45315
H          1.58444       -4.44746       -1.72195
H          4.24184       -5.86334       -2.38799
H          2.78062       -5.89130       -3.36419
H          1.53596       -6.96415       -1.42158
H          3.05589       -7.04505       -0.52305
H          4.06210       -8.44705       -2.34819
H          2.53872       -8.38455       -3.23133
H          2.90963       -9.62572       -0.42609
H          2.71692      -10.52630       -1.94193
H          1.37236       -9.55777       -1.31115
H          7.44271       -1.27684       -0.97677
H          8.55039       -2.64918       -0.87716
H          7.40275       -1.25881        1.63549
H          8.88591       -0.72287        0.84498
H         11.48962       -4.47513        1.75817
H         11.98180       -3.17419        2.88564
H         12.78370       -3.35032       -0.09290
H         13.83990       -3.71247        1.29042
H         13.26391       -2.04977        1.03265
H          8.22036       -3.66156        4.44984
H          7.46120       -2.04285        4.37598
H          9.97625       -2.75353        6.01519
H          8.34723       -2.47515        6.67342
H          9.23686       -1.13319        5.91445
