65

C          1.98046       -1.24094        1.72121
C          3.00210       -0.67087        0.73360
C          3.77514        0.52869        1.29317
C          4.77829        1.12877        0.30074
C          5.56614        2.30657        0.88971
C          6.45531        2.98842       -0.13559
O          7.16773        4.06489        0.52222
C          7.93881        4.84504       -0.36939
N          8.52770        5.94673        0.36993
C          9.35321        5.74932        1.41390
N          9.70066        4.51614        1.83587
C         10.51085        4.62966        3.05674
C         10.88519        6.13402        3.10893
N          9.95661        6.72359        2.10352
C         10.00208        8.12458        1.66193
C          8.82756        8.97897        2.17780
C          8.91768       10.38573        1.63302
C          9.80378       11.31156        2.20457
C          9.92204       12.59820        1.67679
C          9.15759       12.97696        0.56975
C          8.27230       12.06286       -0.00592
C          8.15568       10.77556        0.52347
C         10.76121        6.70075        4.53034
C         11.24954        8.11659        4.76475
C         12.50926        8.55184        4.32222
C         12.94926        9.84982        4.59078
C         12.14407       10.72971        5.32026
C         10.89448       10.30400        5.77646
C         10.45175        9.00894        5.49490
H          1.44890       -2.10262        1.29568
H          1.22626       -0.48796        1.99431
H          2.46441       -1.57623        2.65058
H          2.48859       -0.37045       -0.19534
H          3.71649       -1.45917        0.44252
H          4.30436        0.22442        2.21364
H          3.05997        1.31163        1.60115
H          4.23746        1.46041       -0.60270
H          5.47891        0.34482       -0.03463
H          6.18720        1.95695        1.73109
H          4.87033        3.05502        1.30153
H          5.85202        3.41115       -0.96021
H          7.18227        2.28133       -0.57704
H          7.32123        5.28134       -1.17257
H          8.74316        4.24064       -0.83123
H          8.14441        6.87589        0.23961
H          9.00679        3.77615        1.72295
H         11.39498        3.98370        3.00600
H          9.91382        4.34260        3.93643
H         11.91063        6.28266        2.73201
H         10.03727        8.14475        0.56056
H         10.95045        8.54748        2.01592
H          8.85134        8.98541        3.27637
H          7.86804        8.52366        1.88312
H         10.39785       11.02752        3.07504
H         10.60858       13.31060        2.13579
H          9.24420       13.98411        0.16181
H          7.66619       12.35475       -0.86407
H          7.44935       10.07139        0.07539
H         11.33592        6.01495        5.17821
H          9.71109        6.61351        4.84993
H         13.16886        7.87337        3.77627
H         13.93090       10.17125        4.24080
H         12.49251       11.73971        5.53719
H         10.26157       10.97970        6.35245
H          9.47624        8.68125        5.86204
