58

O          3.72980       -0.47973        1.11702
C          2.78425       -0.00201        0.15931
C          2.81837        1.54457        0.18510
C          2.50159        2.02191        1.63972
C          1.06756        1.56326        1.99819
O          0.61629        1.93942        3.28396
C          0.60723        3.35051        3.41198
C          2.02314        3.86795        3.27165
N          2.64896        3.55669        1.91831
C          1.97562        4.33806        0.79307
C          1.73821        5.83408        1.00556
C          1.13375        6.38926       -0.29372
S          0.90146        8.18087       -0.13100
C          0.16123        8.55986       -1.70117
S         -0.35246        7.44488       -2.79025
N          0.04274        9.93906       -1.88820
C          0.67514       10.97021       -1.17419
N          0.35244       12.14562       -1.63536
C         -0.52810       11.90877       -2.68823
C         -0.72713       10.57093       -2.87089
C          4.14675        3.99895        2.01626
C          4.93015        3.49107        3.19825
C          5.54863        2.22777        3.19143
C          6.31171        1.80796        4.28327
C          6.47858        2.64606        5.38911
C          5.88760        3.91292        5.39907
C          5.12162        4.33143        4.31061
C          4.13235        1.98883       -0.48681
H          3.80083       -1.44335        1.03711
H          1.77445       -0.39219        0.36703
H          3.05062       -0.32184       -0.86225
H          1.98481        1.86467       -0.46304
H          3.20233        1.56252        2.34789
H          1.06148        0.46848        1.99603
H          0.34904        1.90514        1.22544
H          0.24637        3.58460        4.42258
H         -0.09443        3.80896        2.68816
H          2.65497        3.37218        4.01725
H          2.09414        4.95175        3.42281
H          1.01617        3.84267        0.60116
H          2.60632        4.18781       -0.09011
H          2.67434        6.36433        1.23423
H          1.04229        6.01762        1.83647
H          0.15745        5.93717       -0.51726
H          1.78839        6.20579       -1.15775
H          1.37573       10.76668       -0.36956
H         -0.96132       12.72969       -3.25102
H         -1.32058        9.99300       -3.56727
H          4.09922        5.09359        2.05258
H          4.60446        3.70288        1.07172
H          5.44853        1.56422        2.33122
H          6.78708        0.82705        4.26345
H          7.08040        2.31849        6.23735
H          6.03115        4.57871        6.25047
H          4.68062        5.33117        4.31817
H          5.01632        1.71630        0.10248
H          4.17701        3.06030       -0.71794
H          4.21756        1.47029       -1.45118
