50

C          0.74991       -0.27110       -0.24039
C          2.27164       -0.10683       -0.24660
C          2.82335        0.42747        1.07924
C          4.34582        0.59510        1.09557
C          4.87713        1.13173        2.42792
C          6.39959        1.29494        2.46783
C          6.90502        1.83134        3.81084
C          8.42764        1.97950        3.87611
C          8.90397        2.51411        5.23393
C         10.43632        2.60996        5.29394
P         11.08684        3.22952        6.86940
C         10.72554        4.94676        7.20059
C          9.44476        5.34411        7.62729
C          9.18768        6.69657        7.84588
C         10.19452        7.64544        7.63843
C         11.46611        7.24918        7.21420
C         11.74029        5.89978        6.99475
C         10.57465        2.13552        8.25651
C         10.92393        0.76294        7.95042
C         11.23808       -0.36472        7.64863
H          0.38170       -0.65385       -1.20186
H          0.24547        0.68803       -0.05025
H          0.42718       -0.97399        0.54207
H          2.56730        0.57315       -1.06346
H          2.74748       -1.07585       -0.47381
H          2.52346       -0.25147        1.89722
H          2.34758        1.39823        1.30557
H          4.64954        1.27405        0.27951
H          4.82396       -0.37543        0.87486
H          4.56374        0.45571        3.24293
H          4.40141        2.10458        2.64398
H          6.71978        1.97281        1.65762
H          6.87904        0.32296        2.25792
H          6.57112        1.15837        4.61996
H          6.43367        2.80887        4.01385
H          8.77328        2.65557        3.07579
H          8.90400        1.00320        3.68297
H          8.54080        1.84401        6.03017
H          8.45561        3.50432        5.41372
H         10.83420        3.28823        4.52167
H         10.90721        1.62475        5.14365
H         12.49564        3.12797        6.81246
H          8.65229        4.61260        7.79158
H          8.19927        7.01040        8.18084
H          9.98720        8.70145        7.81283
H         12.24985        7.99049        7.05870
H         12.73693        5.59436        6.67103
H          9.49092        2.26379        8.40949
H         11.08187        2.50901        9.16065
H         11.51151       -1.37384        7.41332
