75

C          0.57717       -5.64530       -3.20034
C          2.10148       -5.77676       -3.18476
C          2.82030       -4.43154       -3.02273
C          4.34749       -4.56835       -3.02756
C          5.05733       -3.23525       -2.86834
O          6.48008       -3.47468       -2.89173
C          7.26581       -2.30369       -2.86261
C          8.72155       -2.75106       -2.97743
S          8.84915       -4.11407       -4.19686
C          8.17749       -3.33837       -5.73620
O          8.55298       -4.20089       -6.75218
C          7.80428       -3.99793       -7.98805
C          8.20890       -5.07274       -8.97888
C          7.73509       -6.48543       -8.61721
C          8.18736       -7.54504       -9.62841
C          7.64184       -8.94510       -9.32901
C          8.11282      -10.01395      -10.32192
C          7.53490      -11.40179      -10.03392
C         10.63529       -4.11278       -4.61988
C         11.47834       -4.36226       -3.37503
O         10.86240       -5.39827       -2.63962
C         11.57172       -5.72044       -1.43288
C         10.82935       -6.84057       -0.71646
O         11.50051       -7.01908        0.51305
C         10.99315       -8.10275        1.29237
C         11.81649       -8.15892        2.57185
O         11.29684       -9.21052        3.36359
C         12.01598       -9.38296        4.57719
H          0.09377       -6.62449       -3.31572
H          0.23774       -5.00807       -4.03067
H          0.20367       -5.19930       -2.26660
H          2.44126       -6.25921       -4.11702
H          2.40753       -6.45034       -2.36674
H          2.49392       -3.95626       -2.08169
H          2.50517       -3.75068       -3.83279
H          4.67813       -5.03690       -3.96984
H          4.66829       -5.23881       -2.21417
H          4.78803       -2.74821       -1.91342
H          4.79312       -2.53955       -3.68820
H          7.14482       -1.74079       -1.91725
H          6.99569       -1.61545       -3.68798
H          9.07429       -3.21589       -2.04701
H          9.39202       -1.93105       -3.26515
H          8.59867       -2.31756       -5.82858
H          7.08477       -3.29002       -5.57604
H          8.03511       -2.98917       -8.37148
H          6.72535       -4.04865       -7.75328
H          9.30525       -5.04862       -9.09556
H          7.79454       -4.77904       -9.95766
H          6.63264       -6.48913       -8.55254
H          8.10206       -6.75688       -7.61338
H          9.29082       -7.57721       -9.65391
H          7.87189       -7.24102      -10.64186
H          6.53785       -8.91200       -9.32759
H          7.93544       -9.24381       -8.30676
H          9.21490      -10.06134      -10.30877
H          7.83717       -9.70492      -11.34443
H          7.81842      -11.75435       -9.03094
H          7.89382      -12.14431      -10.75905
H          6.43591      -11.39519      -10.08318
H         10.89326       -3.16476       -5.11034
H         10.71900       -4.93346       -5.34424
H         11.57067       -3.44155       -2.76556
H         12.49995       -4.63863       -3.69976
H         11.63026       -4.83373       -0.77590
H         12.60058       -6.03892       -1.67390
H         10.84627       -7.76491       -1.32622
H          9.76774       -6.55839       -0.56322
H         11.08114       -9.05639        0.73907
H          9.92574       -7.94413        1.53578
H         11.75008       -7.18788        3.10230
H         12.88262       -8.33306        2.32539
H         11.54277      -10.21239        5.11527
H         11.97493       -8.47423        5.20521
H         13.07575       -9.63248        4.38694
