50

C          2.78870       -2.35890        0.84320
C          2.35597       -1.75199        2.18165
C          2.93063       -0.35978        2.50690
C          2.63572        0.71480        1.40897
C          1.19137        1.00334        1.20658
N          0.31387        0.23862        0.54934
N         -0.95140        0.72807        0.56122
C         -0.86221        1.84850        1.24724
N          0.45305        2.04555        1.66798
C          0.96793        3.22169        2.38506
C          1.45542        4.31851        1.41308
C          1.85228        5.54921        2.14958
C          3.10192        5.99631        2.32884
F          4.16847        5.36233        1.84550
F          3.42327        7.09127        2.98208
F          0.82614        6.25185        2.69369
C         -1.99913        2.76645        1.53903
C         -3.36925        2.16013        1.19214
C         -4.53249        3.11078        1.51071
C         -4.67412        4.25819        0.50248
S         -5.83828        5.48925        1.12398
O         -7.15795        4.90223        1.21688
O         -5.21583        6.14782        2.24528
O         -5.84261        6.54924       -0.10745
C          2.49057        0.11452        3.89649
H          2.40221       -3.38019        0.73702
H          3.88367       -2.41102        0.76170
H          2.43678       -1.79398       -0.03650
H          2.67696       -2.42564        2.99066
H          1.25434       -1.73067        2.26046
H          4.03052       -0.44414        2.50219
H          3.05171        0.38453        0.44603
H          3.15463        1.64724        1.66653
H          0.50865       -0.64479        0.08282
H          1.77740        2.89409        3.04651
H          0.15739        3.59808        3.02053
H          0.65128        4.57068        0.70267
H          2.30804        3.95430        0.82404
H         -1.83491        3.71210        0.99356
H         -1.97434        3.03565        2.60892
H         -3.49901        1.23269        1.76807
H         -3.39018        1.86685        0.13189
H         -4.40902        3.52294        2.52468
H         -5.46897        2.53653        1.52217
H         -5.05591        3.91001       -0.46688
H         -3.74025        4.81410        0.33757
H         -6.71966        6.49296       -0.53359
H          1.39731        0.23542        3.96297
H          2.96247        1.06778        4.17530
H          2.77544       -0.62120        4.65950
