60

C          8.61274        0.70097        7.10708
C          8.26643        0.62439        5.61880
C          8.70280        1.86320        4.82949
C          8.33183        1.80061        3.34462
C          8.78445        3.02400        2.54064
C          8.34183        2.98087        1.07437
C          8.81380        4.18357        0.24921
C          8.26210        4.16943       -1.18088
C          8.69145        5.33948       -2.04471
O         10.11653        5.20549       -2.34954
C         10.63913        6.27575       -3.05071
S         12.43835        6.33327       -2.59870
C         12.96332        4.70534       -3.24933
C         14.49847        4.56753       -3.20369
O         15.00671        5.12013       -1.98969
C         14.91472        3.11806       -3.42527
C         13.09757        7.52396       -3.81947
C         12.67027        8.95870       -3.50261
C         13.32498        9.94944       -4.47776
C         12.91199       11.40115       -4.20863
C         13.53774       12.38422       -5.19957
H          8.29188       -0.20360        7.64129
H          8.12230        1.56125        7.58627
H          9.69664        0.81083        7.26019
H          7.17862        0.48559        5.50050
H          8.73551       -0.27019        5.17554
H          9.79482        1.99344        4.93161
H          8.24723        2.76182        5.28151
H          7.23746        1.68949        3.25031
H          8.76731        0.88983        2.89732
H          9.88440        3.10929        2.59285
H          8.38628        3.93917        3.01255
H          7.24024        2.92319        1.03270
H          8.71020        2.05137        0.60613
H          9.91613        4.20364        0.22695
H          8.49732        5.11654        0.74749
H          7.16008        4.18850       -1.15043
H          8.53330        3.23225       -1.69382
H          8.53837        6.30302       -1.52577
H          8.13683        5.35644       -2.99772
H         10.23149        7.25429       -2.73721
H         10.57646        6.17422       -4.15192
H         12.55886        4.58650       -4.26521
H         12.46728        3.98908       -2.57766
H         14.93262        5.19021       -4.00243
H         15.00850        4.43525       -1.29965
H         14.52019        2.46924       -2.62841
H         16.00954        3.04655       -3.42853
H         14.54550        2.73601       -4.38671
H         12.78188        7.19433       -4.82055
H         14.18819        7.41042       -3.73379
H         12.95573        9.21071       -2.46893
H         11.57538        9.05799       -3.56879
H         13.05555        9.67822       -5.51279
H         14.42214        9.85953       -4.40820
H         13.19953       11.67448       -3.18014
H         11.81291       11.47969       -4.25222
H         14.63590       12.34922       -5.15926
H         13.22984       13.41457       -4.98021
H         13.23309       12.15857       -6.23183
