46

O          1.49892       -0.84495       -0.74706
C          2.82429       -0.40356       -0.47631
C          2.97066        0.93593       -1.18450
O          4.30556        1.40480       -0.94344
C          4.56761        2.66616       -1.49985
C          5.96891        3.02420       -1.00016
N          6.62549        4.10161       -1.82083
C          5.94035        5.44651       -1.70941
C          6.63177        6.45705       -2.63609
N          8.06974        6.52669       -2.48640
C          8.74472        5.24392       -2.54803
C          8.15964        4.17129       -1.57933
C          8.51548        4.28384       -0.11600
C          8.30516        5.41972        0.68411
C          8.72772        5.39789        2.01643
N          9.33269        4.35012        2.59106
C          9.54224        3.27107        1.82514
C          9.15567        3.19135        0.48514
C         10.26096        5.38256       -2.35956
C         10.93898        6.20488       -3.45782
H          1.35902       -1.69873       -0.31145
H          3.58235       -1.10758       -0.86468
H          3.00358       -0.26681        0.60542
H          2.23264        1.65752       -0.79011
H          2.79451        0.81476       -2.26864
H          3.81244        3.40975       -1.17972
H          4.54831        2.63257       -2.61375
H          6.60111        2.12912       -1.07547
H          5.96478        3.35474        0.04491
H          6.53560        3.81616       -2.80927
H          5.98110        5.73428       -0.65219
H          4.88993        5.30255       -1.99230
H          6.18977        7.44736       -2.46471
H          6.39956        6.19137       -3.68431
H          8.38229        7.11076       -1.71316
H          8.56446        4.84533       -3.56922
H          8.50349        3.18529       -1.92697
H          7.83382        6.32417        0.30365
H          8.57204        6.27285        2.65316
H         10.04191        2.42606        2.30598
H          9.36036        2.28289       -0.08489
H         10.69942        4.37254       -2.32220
H         10.45692        5.82904       -1.37086
H         10.79851        5.74543       -4.44655
H         12.01817        6.26917       -3.27160
H         10.54293        7.22675       -3.50442
