110

C          3.52994        3.91209        0.81877
C          4.28526        3.40765        2.05101
C          4.80818        1.97297        1.90959
C          5.59886        1.46942        3.12107
C          6.01746        0.00066        3.00562
C          6.84961       -0.50291        4.19021
C          7.05066       -2.01988        4.15770
C          7.83492       -2.55042        5.36929
N          7.68318       -4.00457        5.53396
C          6.62833       -4.55305        6.17168
S          6.29621       -6.18954        6.25139
S          5.60249       -3.30867        6.98684
C          4.15881       -4.27721        7.47330
C          3.23504       -4.52535        6.27456
C          1.90644       -5.11262        6.72153
N          1.01016       -5.53908        5.56501
C          1.38888       -6.85964        4.90241
C          1.04941       -6.71289        3.40162
C          0.26351       -5.38588        3.30292
C          0.81195       -4.52780        4.45642
C         -0.20083       -3.50264        4.95490
O         -0.99304       -3.78171        5.82700
C         -0.22991       -2.09874        4.26838
C          0.52500       -1.03803        5.16668
C          1.37460        0.06053        4.42688
C          0.59116        0.87617        3.35823
O         -0.61047        0.93222        3.38187
O          1.34791        1.51990        2.46096
F          1.83333        0.91469        5.38516
F          2.47336       -0.54746        3.86586
F         -0.34785       -0.46188        6.00379
F          1.42776       -1.76355        5.93177
F          0.40666       -2.19664        3.05203
F         -1.50611       -1.74350        4.06619
C          0.26581       -7.90054        2.82818
C          1.03645       -9.22516        2.81805
C          0.18635      -10.39220        2.27848
C          0.93899      -11.70256        2.26873
C          0.88271      -12.57046        3.36882
C          1.60436      -13.76657        3.37480
C          2.39663      -14.11093        2.27664
C          2.45973      -13.25498        1.17384
C          1.73604      -12.06096        1.17169
C          8.72058       -4.84938        4.91949
C          9.89340       -5.10278        5.87320
C         10.96057       -6.01502        5.26170
C         12.16438       -6.21731        6.18760
C         13.21632       -7.18358        5.63523
C         14.42657       -7.35160        6.55907
C         15.46476       -8.35487        6.04514
C         16.68764       -8.47813        6.95759
H          3.16530        4.93710        0.96645
H          2.65741        3.28368        0.58695
H          4.17760        3.91540       -0.07011
H          3.63713        3.48018        2.94243
H          5.13935        4.07321        2.25744
H          5.43621        1.90155        1.00501
H          3.96900        1.27431        1.70242
H          4.99891        1.60448        4.03873
H          6.49279        2.10204        3.25294
H          6.58003       -0.15261        2.06850
H          5.11062       -0.62460        2.91659
H          6.34261       -0.23386        5.13342
H          7.82362        0.01441        4.20815
H          7.55921       -2.32259        3.22829
H          6.06274       -2.50714        4.14784
H          7.51475       -2.04276        6.29179
H          8.90874       -2.34047        5.26986
H          3.67410       -3.66471        8.24859
H          4.50870       -5.22346        7.91252
H          3.76459       -5.20880        5.59135
H          3.08014       -3.56853        5.75964
H          1.32296       -4.39163        7.31029
H          2.04201       -6.01656        7.33165
H          0.06198       -5.62751        5.97386
H          0.81148       -7.64762        5.40190
H          2.45420       -7.03303        5.08801
H          1.99488       -6.60057        2.84782
H         -0.81407       -5.56409        3.45036
H          0.39112       -4.88650        2.33652
H          1.77732       -4.07775        4.20060
H          2.30471        1.33340        2.56741
H         -0.04147       -7.65034        1.79973
H         -0.66980       -8.01658        3.40489
H          1.38131       -9.48391        3.83402
H          1.94705       -9.12314        2.20514
H         -0.15265      -10.14970        1.25848
H         -0.72162      -10.49165        2.89511
H          0.25358      -12.31464        4.22512
H          1.53964      -14.43651        4.23334
H          2.95490      -15.04764        2.27575
H          3.06745      -13.52200        0.30827
H          1.78044      -11.40328        0.29991
H          9.06062       -4.33655        4.00695
H          8.24871       -5.79655        4.62815
H          9.49964       -5.55609        6.79661
H         10.34800       -4.14032        6.16321
H         11.30426       -5.59547        4.29990
H         10.50885       -6.99337        5.02369
H         11.81074       -6.58708        7.16593
H         12.63602       -5.23929        6.38775
H         13.55760       -6.82986        4.64628
H         12.74920       -8.16861        5.45940
H         14.08168       -7.66658        7.55973
H         14.91147       -6.37006        6.70473
H         15.78787       -8.05773        5.03294
H         14.98743       -9.34301        5.93054
H         17.22117       -7.51978        7.04147
H         17.40089       -9.22234        6.57782
H         16.39899       -8.78420        7.97412
