81

C          2.84394       -0.63757       -0.99630
C          1.39133       -0.44875       -0.64829
C          0.39965       -0.46564       -1.64153
C         -0.95091       -0.32853       -1.31769
C         -1.34843       -0.17731        0.01657
C         -0.36583       -0.14975        1.01583
C          0.98263       -0.28419        0.68596
C         -2.81816        0.00735        0.36972
C         -3.12837        1.47439        0.51375
C         -3.31919        2.11592        1.75618
C         -3.54533        3.47683        1.76778
C         -3.56631        4.19434        0.56078
N         -3.36888        3.48094       -0.57905
N         -3.16628        2.17122       -0.62444
C         -3.30318        4.16658       -1.90925
C         -3.50371        3.19759       -3.06930
C         -3.31358        3.83338       -4.45439
C         -4.56754        4.47842       -5.16842
C         -5.31883        5.72756       -4.55777
C         -4.60051        7.11402       -4.30767
C         -3.89713        7.92129       -5.47166
C         -4.70491        8.41955       -6.73796
C         -5.94352        9.39613       -6.60123
C         -5.74341       10.78619       -5.88966
F         -4.67451       11.43151       -6.38342
F         -6.84086       11.53035       -6.09988
F         -5.58558       10.62733       -4.56142
F         -6.33219        9.65253       -7.87469
F         -6.95033        8.74268       -5.96556
F         -3.78390        9.03340       -7.52082
F         -5.16198        7.32124       -7.39424
F         -3.35007        9.01094       -4.87260
F         -2.88688        7.15035       -5.94827
F         -5.53247        7.91073       -3.73862
F         -3.62036        6.89068       -3.37486
F         -6.39973        5.94473       -5.33129
F         -5.77225        5.33964       -3.31159
F         -4.21327        4.78196       -6.43548
F         -5.51838        3.49602       -5.20797
F         -2.28909        4.74253       -4.43762
F         -2.94216        2.82683       -5.30503
C         -3.82358        5.67027        0.52207
C         -5.33218        5.97538        0.34749
C         -5.56224        7.48261        0.27586
C         -7.02555        7.94749       -0.07837
C         -8.24707        7.43299        0.78094
C         -8.33378        7.68336        2.33623
C         -8.34130        9.14435        2.93937
C         -9.47298       10.14039        2.48352
F        -10.68422        9.56844        2.58390
F         -9.42828       11.21865        3.28076
F         -9.27632       10.53577        1.21341
F         -8.47012        8.97347        4.27968
F         -7.14295        9.72887        2.69041
F         -9.46508        7.06045        2.74385
F         -7.27014        7.03882        2.90916
F         -9.36426        7.93701        0.21038
F         -8.27678        6.06876        0.63697
F         -7.03922        9.29803       -0.09831
F         -7.27604        7.49300       -1.34275
F         -5.17398        8.07726        1.44383
F         -4.77288        8.01228       -0.71691
H          3.13968       -1.69009       -0.86599
H          3.49566       -0.03605       -0.34911
H          3.04796       -0.36705       -2.03988
H          0.68832       -0.59855       -2.68591
H         -1.70190       -0.35708       -2.10986
H         -0.65244       -0.03844        2.06463
H          1.73236       -0.26943        1.47934
H         -3.06569       -0.51024        1.30631
H         -3.45212       -0.41100       -0.42399
H         -3.28999        1.53970        2.68123
H         -3.70418        4.02076        2.69909
H         -2.31356        4.64310       -1.96853
H         -4.05785        4.95446       -1.90200
H         -4.49239        2.72155       -3.02958
H         -2.75554        2.39790       -3.01963
H         -3.24248        6.15880       -0.26960
H         -3.47923        6.09475        1.47483
H         -5.90311        5.56709        1.19071
H         -5.73365        5.52521       -0.57073
