57

O          2.39615       -1.92287       -0.37174
C          2.15433       -0.50431       -0.26809
C          3.07407        0.27772       -1.25086
C          2.66848       -0.10526       -2.66876
N          2.52678       -1.46562       -2.93793
C          2.14716       -1.68171       -4.20475
N          2.06297       -0.47009       -4.77363
C          2.37793        0.53573       -3.86156
C          2.32866        1.95273       -4.34950
C          0.93221        2.38205       -4.89616
C          0.95839        2.93168       -6.32523
C          1.26470        1.88880       -7.38897
O          1.43084        0.69742       -7.17720
O          1.34256        2.32693       -8.65919
C          1.90478       -3.00794       -4.85180
C          1.29806       -4.05343       -3.89703
C         -0.15243       -3.72872       -3.50330
S         -0.54931       -4.43138       -1.89154
O         -0.39192       -5.86595       -1.92713
O          0.12357       -3.62763       -0.89161
O         -2.12085       -4.07536       -1.76728
C          2.86958        1.79760       -1.01443
C          3.30471        2.38673        0.35709
C          4.70853        3.00890        0.29842
C          2.28529        3.43463        0.82749
C          4.54666       -0.14129       -1.02644
H          1.58247       -2.40978       -0.14254
H          2.36841       -0.17804        0.76057
H          1.09852       -0.27640       -0.49197
H          2.55741       -2.11816       -2.12957
H          1.79294       -0.23722       -5.75104
H          3.08535        2.06106       -5.14452
H          2.63965        2.62756       -3.54830
H          0.50856        3.15349       -4.23963
H          0.23285        1.53515       -4.85955
H          1.69078        3.75133       -6.42184
H         -0.02033        3.37394       -6.57770
H          1.17916        3.28657       -8.70961
H          2.86446       -3.39504       -5.23341
H          1.26416       -2.85767       -5.73355
H          1.92981       -4.14033       -2.99971
H          1.33410       -5.03834       -4.37817
H         -0.87616       -4.13619       -4.22115
H         -0.33482       -2.65022       -3.39358
H         -2.62507       -4.90897       -1.85087
H          1.80252        2.02170       -1.18159
H          3.42938        2.33983       -1.79134
H          3.32340        1.58284        1.11145
H          4.72608        3.85160       -0.41056
H          5.47690        2.29146       -0.01662
H          5.00256        3.40001        1.28210
H          2.20911        4.25952        0.10160
H          2.58270        3.87050        1.79084
H          1.28284        2.99980        0.94888
H          4.69270       -1.21415       -1.20028
H          4.84868        0.06523        0.00822
H          5.21367        0.41226       -1.70020
