45

C          1.51589        1.18015        2.87155
C          2.00419        0.37202        1.66475
C          3.11666        1.11933        0.87870
C          2.68803        2.43894        0.33344
C          1.78506        2.75962       -0.65474
N          1.70757        4.13718       -0.74928
C          2.54800        4.67740        0.14442
N          3.14771        3.66597        0.81290
N          4.11663        3.78228        1.82999
C          3.68258        4.68268        2.90432
C          5.43631        4.11130        1.26847
C          0.83028        4.88477       -1.68017
C          1.59658        5.82132       -2.61839
C          2.61449        5.10032       -3.51030
C          3.35748        6.08315       -4.42094
S          4.74227        5.22140       -5.21044
O          5.70172        4.86431       -4.18846
O          4.22640        4.23745       -6.13197
Cl         5.55300        6.77074       -6.32028
C          2.52125       -1.00635        2.08808
H          1.09432        2.15336        2.57816
H          2.33697        1.36005        3.58232
H          0.72803        0.63471        3.40744
H          1.15299        0.22535        0.97695
H          3.45446        0.48685        0.04375
H          3.98206        1.28079        1.53790
H          1.18712        2.11567       -1.28906
H          2.71165        5.73456        0.31249
H          2.70035        4.36534        3.27401
H          3.64380        5.74730        2.60498
H          4.40715        4.58652        3.72164
H          5.70549        3.37421        0.50271
H          6.16664        4.04649        2.08375
H          5.47997        5.12670        0.83219
H          0.10074        5.44509       -1.07959
H          0.28058        4.12384       -2.24904
H          2.09596        6.61023       -2.03242
H          0.84101        6.33590       -3.23185
H          2.10994        4.34097       -4.12669
H          3.35094        4.57154       -2.88531
H          3.81028        6.91568       -3.86551
H          2.73180        6.47751       -5.23212
H          3.37576       -0.91306        2.77528
H          2.84560       -1.60262        1.22391
H          1.73631       -1.57005        2.60939
