60

C          1.22566       -0.67980       -2.06321
C          2.60410       -0.03523       -2.17097
S          3.30925        0.08759       -0.47503
C          4.75130        0.95360       -0.82610
N          5.18273        1.43766       -1.97493
N          6.38480        2.05444       -1.70941
C          6.61196        1.90561       -0.43274
O          5.61778        1.21477        0.20837
C          7.76529        2.32669        0.32347
N          7.93331        2.05812        1.60051
N          9.15838        2.58556        1.88762
C          9.74671        3.16507        0.81716
N         10.94975        3.74532        0.76924
Si        12.19912        3.92797        2.09005
C         11.40427        4.91230        3.47004
C         12.68379        2.20492        2.63656
C         13.57675        4.84597        1.23238
N          8.85668        3.01694       -0.20737
C          9.03588        3.54240       -1.57810
C          8.88876        5.07027       -1.64159
C          8.71299        5.58534       -3.07844
S          7.02415        5.39418       -3.70579
C          7.11519        3.92599       -4.75040
S          8.52503        3.07029       -5.00283
N          5.92321        3.62523       -5.31129
C          4.66377        4.34685       -5.08993
C          3.65314        3.41162       -4.42066
O          3.44417        2.22811       -5.18876
C          4.67535        1.53064       -5.42122
C          5.71155        2.41487       -6.11622
H          0.80533       -0.78658       -3.07182
H          0.53324       -0.06429       -1.47402
H          1.27206       -1.68040       -1.61267
H          2.55798        0.97434       -2.59583
H          3.29651       -0.63678       -2.77303
H          9.52469        2.50066        2.82940
H         11.19126        4.11054       -0.14944
H         10.54322        4.40995        3.93340
H         11.06990        5.89707        3.11678
H         12.14124        5.07492        4.26991
H         11.85374        1.63194        3.07354
H         13.46328        2.27430        3.40942
H         13.09206        1.62267        1.79961
H         13.24848        5.83034        0.87089
H         13.98449        4.27595        0.38623
H         14.40042        5.01547        1.94009
H          8.28036        3.05114       -2.20263
H         10.01567        3.20090       -1.94405
H          9.76628        5.57087       -1.19827
H          8.02003        5.36958       -1.03556
H          9.37903        5.07510       -3.79446
H          8.90669        6.66528       -3.11600
H          4.28501        4.67962       -6.07021
H          4.82540        5.23574       -4.46992
H          2.67541        3.90702       -4.34491
H          4.01283        3.15371       -3.40846
H          4.42288        0.67469       -6.06121
H          5.08487        1.16443       -4.46418
H          5.35441        2.72262       -7.11244
H          6.67070        1.89490       -6.21997
