57

C          4.24160       -4.65648        7.09017
C          5.39419       -4.38118        6.12158
C          4.93143       -4.04031        4.70023
C          6.09062       -3.75225        3.74108
C          5.63992       -3.44164        2.30852
C          6.78263       -3.10604        1.36353
O          7.67447       -4.23494        1.30626
C          8.81507       -4.02764        0.51076
C          9.74971       -5.21370        0.78807
O         11.04557       -5.05859        0.23220
C         11.04268       -5.06221       -1.16831
N         10.30197       -6.22479       -1.69207
C          9.50715       -6.94596       -0.88102
N          9.04227       -8.14571       -1.29697
N          9.19879       -6.51114        0.35670
C          8.50733       -7.37579        1.33838
C          6.98420       -7.41247        1.19732
C         10.47571       -6.52964       -3.12896
C          9.26288       -6.20827       -4.00532
C          8.81037       -4.74541       -3.95472
C          7.76193       -4.42537       -5.03146
N          8.31652       -4.65676       -6.36895
H          4.61244       -4.90149        8.09449
H          3.62402       -5.50093        6.74965
H          3.58120       -3.78224        7.18514
H          6.06079       -5.26010        6.08277
H          6.01124       -3.55319        6.50917
H          4.25710       -3.16699        4.73483
H          4.32366       -4.87336        4.30424
H          6.77564       -4.61612        3.72793
H          6.68216       -2.90320        4.12643
H          4.95022       -2.58185        2.30781
H          5.06750       -4.28997        1.89681
H          7.34532       -2.22305        1.72210
H          6.40691       -2.88210        0.34760
H          9.35442       -3.10354        0.79468
H          8.54993       -3.95567       -0.56404
H          9.89966       -5.28215        1.87361
H         12.09353       -5.15146       -1.47766
H         10.61627       -4.13606       -1.59458
H          9.25211       -8.47516       -2.22873
H          8.26075       -8.57715       -0.82265
H          8.77157       -6.97684        2.32536
H          8.94931       -8.38306        1.28171
H          6.57317       -6.40138        1.28912
H          6.56298       -8.04200        1.99196
H          6.64578       -7.82916        0.23692
H         10.80018       -7.57718       -3.24539
H         11.33581       -5.92700       -3.45391
H          8.41255       -6.86259       -3.75008
H          9.53147       -6.45153       -5.04487
H          9.68203       -4.08278       -4.10202
H          8.38927       -4.49687       -2.96608
H          7.38699       -3.39779       -4.86843
H          6.89782       -5.09655       -4.90509
H          8.90560       -3.87586       -6.66039
H          7.57659       -4.73723       -7.06491
