70

C          2.02251       -1.83764       -0.72033
O          3.26233       -1.33825       -0.18943
C          3.14971       -0.05668        0.40521
C          4.54861        0.33951        0.91874
C          4.40035        1.39345        2.03232
C          5.68406        1.96302        2.67386
C          6.16900        1.31652        3.97492
C          5.66158        1.90756        5.34685
C          4.12629        1.87867        5.72807
C          3.31960        0.53052        5.94042
C          3.75819       -0.56421        6.99515
C          3.87322       -0.23557        8.53828
C          2.62838        0.28379        9.36731
C          1.32313       -0.59599        9.41626
F          1.61105       -1.86759        9.73907
F          0.50279       -0.08191       10.34426
F          0.68883       -0.57851        8.22738
F          3.07750        0.40234       10.64067
F          2.28447        1.51580        8.91133
F          4.29816       -1.38897        9.11046
F          4.84521        0.70106        8.68803
F          2.86859       -1.58081        6.85060
F          4.98055       -1.02314        6.61326
F          2.05119        0.90627        6.21093
F          3.30104       -0.12876        4.73296
F          4.00010        2.61206        6.85237
F          3.46115        2.52989        4.71906
F          6.36334        1.31987        6.34056
F          5.98731        3.23283        5.31425
F          5.90959       -0.05977        3.99426
F          7.52668        1.43454        4.03289
C          5.51134        0.74670       -0.22888
O          6.78736        0.25117        0.17569
C          6.57815       -1.05771        0.62149
N          5.23644       -0.94061        1.40596
C          7.71864       -1.56028        1.48046
C          9.03538       -1.68962        0.69733
C         10.17969       -2.18590        1.58832
C         11.52299       -2.25175        0.84125
N         12.60987       -2.72295        1.67969
C         13.34129       -1.94188        2.55249
C         14.19846       -2.76799        3.25471
C         13.97475       -4.09770        2.79926
C         12.98749       -4.04218        1.83346
H          2.23066       -2.84128       -1.10405
H          1.66622       -1.19560       -1.54047
H          1.25346       -1.89323        0.06653
H          2.42000       -0.07323        1.23648
H          2.80978        0.70141       -0.32486
H          3.71968        0.99918        2.79549
H          3.85572        2.23022        1.57020
H          5.54856        3.03142        2.88298
H          6.53772        1.89261        1.98573
H          5.59031        1.83230       -0.35390
H          5.19543        0.28796       -1.18164
H          6.34446       -1.73609       -0.22028
H          5.41144       -0.90778        2.42176
H          4.61029       -1.72709        1.15393
H          7.43455       -2.54143        1.89613
H          7.85672       -0.87206        2.32860
H          9.29410       -0.71049        0.26512
H          8.89365       -2.37918       -0.15197
H          9.94709       -3.18582        1.98819
H         10.29359       -1.52043        2.45903
H         11.79016       -1.25677        0.45238
H         11.44559       -2.92333       -0.02738
H         13.20071       -0.86595        2.58619
H         14.91995       -2.44736        3.99912
H         14.49200       -4.99375        3.12645
H         12.53558       -4.82292        1.22963
