75

C          0.71973        0.05924        0.19110
C          2.25010        0.05768        0.15343
C          2.89119        0.52865        1.46373
C          4.42282        0.52357        1.43346
C          5.06914        0.98925        2.74229
C          6.60078        0.96815        2.70530
C          7.25609        1.42417        4.01263
C          8.78779        1.38217        3.97020
C          9.43925        1.83572        5.28229
C         10.95559        1.76788        5.23119
O         11.47817        2.19814        6.50236
C         12.89037        2.16286        6.55320
C         13.30029        2.72015        7.89282
C         13.02989        4.04649        8.25389
C         13.41485        4.51486        9.50493
C         14.06207        3.68109       10.41875
N         14.29024        2.37986       10.05255
C         13.92258        1.91465        8.83064
C         14.96309        1.43744       11.03234
C         15.04354        0.01295       10.56848
C         16.18201       -0.45093        9.89538
C         16.23131       -1.77636        9.45808
C         15.15484       -2.63271        9.69231
C         14.00694       -2.19271       10.37461
C         13.97086       -0.86058       10.80571
C         12.86616       -3.13338       10.65866
C         14.51655        4.15454       11.78086
C         14.27889        5.62373       12.04798
C         13.10493        6.04863       12.68490
C         12.88097        7.40739       12.92076
C         13.82943        8.35246       12.52121
C         15.00470        7.93607       11.88945
C         15.22897        6.57758       11.65524
H          0.29253       -0.28180       -0.76193
H          0.32587        1.06735        0.38911
H          0.33870       -0.60428        0.98177
H          2.59965        0.70066       -0.67220
H          2.61234       -0.95747       -0.08227
H          2.53973       -0.11262        2.29156
H          2.53263        1.54642        1.69930
H          4.77320        1.16553        0.60601
H          4.77844       -0.49443        1.19494
H          4.71528        0.35136        3.57143
H          4.72236        2.01058        2.97891
H          6.95421        1.60806        1.87774
H          6.94393       -0.05321        2.46339
H          6.89767        0.79022        4.84249
H          6.92508        2.44998        4.25121
H          9.14653        2.01589        3.14070
H          9.11544        0.35536        3.73143
H          9.08480        1.20715        6.11513
H          9.13648        2.86919        5.51606
H         11.35814        2.41892        4.43101
H         11.29758        0.73500        5.02569
H         13.33433        2.77872        5.74392
H         13.27860        1.13261        6.42979
H         12.51597        4.70584        7.55316
H         13.22703        5.54508        9.80186
H         14.14499        0.86593        8.64404
H         14.39000        1.50913       11.96601
H         15.96562        1.84733       11.21764
H         17.02626        0.21818        9.71715
H         17.11530       -2.14503        8.93732
H         15.20643       -3.66723        9.34764
H         13.08844       -0.49606       11.33871
H         12.65584       -3.77950        9.79608
H         11.94746       -2.59185       10.91609
H         13.11010       -3.79413       11.50452
H         15.59033        3.92793       11.89297
H         14.00703        3.55224       12.55268
H         12.36250        5.31425       13.00560
H         11.96785        7.72599       13.42415
H         13.65747        9.41232       12.71011
H         15.75302        8.66867       11.58601
H         16.15344        6.25772       11.16891
