89

C          0.46515        0.52690        0.28375
C          1.98945        0.38207        0.29897
C          2.68967        1.24899       -0.75328
C          4.21671        1.12009       -0.75143
C          4.90039        1.98560       -1.81472
C          6.42936        1.87989       -1.82161
C          7.08772        2.75192       -2.89548
C          8.61900        2.68847       -2.91141
C          9.24065        3.57736       -3.99343
C         10.77284        3.56914       -4.02326
C         11.34785        4.44901       -5.13789
C         12.87862        4.48433       -5.20132
C         13.40038        5.31973       -6.37505
C         14.92754        5.40969       -6.46985
C         15.39297        6.16646       -7.71857
C         16.91312        6.32064       -7.84126
C         17.32523        7.00406       -9.14900
C         18.83654        7.21270       -9.30357
C         19.19865        7.79646      -10.67666
C         20.68965        8.01023      -10.90861
N         21.49022        6.71404      -10.86970
C         21.35310        5.94272      -12.16778
C         21.84263        4.49016      -12.11474
C         21.17176        3.54602      -11.11272
C         19.63621        3.29868      -11.28344
Br        19.15862        2.66942      -13.06488
F         19.19129        2.44000      -10.35707
F         18.99180        4.49134      -11.06476
Br        22.10741        1.84072      -11.11581
F         21.30347        4.09997       -9.82607
C         22.93536        6.95506      -10.46753
C         23.09489        7.13852       -8.96339
C         24.56873        7.34407       -8.57967
C         24.75982        7.54029       -7.07436
H         -0.01003       -0.10632        1.04570
H          0.04691        0.24136       -0.69321
H          0.16133        1.56630        0.47946
H          2.26140       -0.67497        0.13774
H          2.37494        0.64273        1.29933
H          2.41367        2.30667       -0.59405
H          2.30336        0.98668       -1.75438
H          4.49484        0.06252       -0.90586
H          4.60511        1.39090        0.24631
H          4.61165        3.04095       -1.66409
H          4.51302        1.70901       -2.81138
H          6.72408        0.82626       -1.97175
H          6.82010        2.16373       -0.82848
H          6.77241        3.80072       -2.75244
H          6.70250        2.45714       -3.88778
H          8.94361        1.64368       -3.06124
H          9.00814        2.98683       -1.92195
H          8.88885        4.61494       -3.85390
H          8.85887        3.26357       -4.98127
H         11.13383        2.53321       -4.14983
H         11.16160        3.90772       -3.04674
H         10.96815        5.47915       -5.01834
H         10.95596        4.09808       -6.10919
H         13.26826        3.45432       -5.28321
H         13.27844        4.88504       -4.25329
H         12.98301        6.33995       -6.30870
H         13.00603        4.89719       -7.31635
H         15.35769        4.39270       -6.47653
H         15.32589        5.90244       -5.56584
H         14.92758        7.16754       -7.73197
H         15.01027        5.64658       -8.61464
H         17.39114        5.32673       -7.78217
H         17.29731        6.89649       -6.98158
H         16.81943        7.98132       -9.23026
H         16.95915        6.40263       -9.99892
H         19.33327        6.23706       -9.14467
H         19.20982        7.87868       -8.50717
H         18.72967        8.78663      -10.78899
H         18.76173        7.17952      -11.47789
H         21.11244        8.65054      -10.12435
H         20.90352        8.47410      -11.88139
H         21.07354        6.12909      -10.12692
H         21.94201        6.48965      -12.91643
H         20.29877        5.99794      -12.45806
H         22.92029        4.44088      -11.91154
H         21.70731        4.07224      -13.12142
H         23.27627        7.83057      -11.03827
H         23.51548        6.08671      -10.80191
H         22.70066        6.24687       -8.44677
H         22.50481        7.99876       -8.60841
H         24.96775        8.21654       -9.12266
H         25.15615        6.47492       -8.91911
H         24.21725        8.42550       -6.71266
H         25.82041        7.67974       -6.83109
H         24.40038        6.67025       -6.50673
