31

C          0.77902        0.40216        1.17273
C          2.30707        0.48466        1.22016
C          2.91825       -0.91674        1.11116
N          4.40597       -0.89887        1.12453
C          5.19892       -0.79985        0.03407
C          4.80031       -0.77465       -1.40678
O          4.08453        0.41389       -1.64314
C          3.64058        0.52310       -3.00771
N          6.45053       -0.75576        0.50447
N          6.51622       -0.83335        1.84760
C          5.25816       -0.91728        2.21997
C          4.81645       -1.06995        3.66308
C          5.95703       -1.15638        4.71836
F          6.74723       -2.22696        4.44552
F          6.69866       -0.01967        4.67877
F          4.00989       -0.01709        4.00018
F          4.06586       -2.21385        3.76417
H          0.34437        1.40461        1.26847
H          0.37772       -0.21212        1.99121
H          0.42451       -0.02384        0.22308
H          2.63340        0.95080        2.16030
H          2.68745        1.10126        0.39372
H          2.62415       -1.40457        0.17206
H          2.60446       -1.56614        1.93709
H          4.19585       -1.68011       -1.62633
H          5.71884       -0.84594       -2.02317
H          3.10126        1.47300       -3.07385
H          2.96501       -0.30726       -3.27119
H          4.49714        0.53734       -3.70102
H          7.31155       -0.67788       -0.03546
H          5.50514       -1.27270        5.71797
