95

C          0.51132       -0.23327       -0.08618
C          2.03940       -0.18373       -0.00777
C          2.59414        1.23472        0.16517
C          4.12328        1.29292        0.23532
C          4.68271        2.71121        0.38912
C          6.21300        2.75963        0.44188
C          6.78798        4.17506        0.55933
C          8.31939        4.20507        0.59380
C          8.91326        5.61507        0.67609
C         10.44508        5.62439        0.70513
C         11.05599        7.02819        0.76460
C         12.58719        7.01596        0.82254
C         13.21138        8.41342        0.88411
C         14.73501        8.38532        1.05112
C         15.35004        9.78940        1.13528
C         16.81964        9.81228        1.54003
N         17.69316        9.18434        0.46915
C         19.04712        9.95233        0.49019
O         18.89405       10.87950        1.52065
C         17.49539       11.18994        1.70265
C         17.35943       11.85997        3.06151
C         15.94877       12.31675        3.42989
O         16.05970       13.07395        4.61456
C         14.78751       13.44085        5.14956
C         15.01080       14.11480        6.49589
O         13.72768       14.29909        7.06266
C         13.76077       14.85826        8.37245
C         12.32814       14.87717        8.88602
O         12.34922       15.41378       10.19597
C         11.05327       15.48532       10.77164
C         20.24058        9.03333        0.76443
C         20.22088        7.78292       -0.12758
O         19.07041        6.93990        0.15194
C         21.55407        9.83316        0.60782
C         22.78188        9.13240        1.19832
H          0.14624       -1.26195       -0.21157
H          0.13580        0.35797       -0.93479
H          0.05107        0.17321        0.82687
H          2.46999       -0.63164       -0.91957
H          2.38668       -0.81343        0.82902
H          2.16798        1.68342        1.08006
H          2.24296        1.86623       -0.67024
H          4.54645        0.83366       -0.67567
H          4.47421        0.66910        1.07643
H          4.26913        3.17148        1.30376
H          4.32684        3.33574       -0.44929
H          6.62182        2.27777       -0.46391
H          6.56795        2.15027        1.29180
H          6.39065        4.65960        1.46854
H          6.42990        4.78547       -0.28840
H          8.71173        3.69923       -0.30614
H          8.67591        3.60900        1.45242
H          8.52693        6.12500        1.57604
H          8.56000        6.21114       -0.18364
H         10.82898        5.09861       -0.18681
H         10.79545        5.03886        1.57347
H         10.66323        7.56214        1.64748
H         10.72506        7.61035       -0.11309
H         12.98331        6.47560       -0.05508
H         12.90976        6.43671        1.70570
H         12.77236        8.97451        1.72723
H         12.94804        8.97873       -0.02647
H         15.18066        7.81401        0.21658
H         14.98572        7.82794        1.97049
H         14.79502       10.37539        1.88200
H         15.22357       10.33158        0.18063
H         16.98692        9.22546        2.45607
H         17.24582        9.29767       -0.44841
H         17.90229        8.15988        0.58042
H         19.12249       10.43742       -0.50284
H         17.15617       11.86741        0.89269
H         18.01263       12.74456        3.06098
H         17.74277       11.18073        3.83792
H         15.27707       11.45151        3.60539
H         15.49944       12.91971        2.61241
H         14.15864       12.54245        5.29735
H         14.25493       14.12047        4.45865
H         15.54069       15.07869        6.36922
H         15.64108       13.46501        7.13438
H         14.17602       15.88326        8.35513
H         14.39326       14.24558        9.04246
H         11.91813       13.84753        8.88326
H         11.69595       15.49033        8.21361
H         11.17151       15.90892       11.77581
H         10.59072       14.48416       10.85338
H         10.38282       16.13609       10.18050
H         20.15080        8.70806        1.81653
H         21.14538        7.20837        0.00584
H         20.15623        8.05583       -1.19296
H         19.34202        6.19707        0.71253
H         21.42235       10.80548        1.10330
H         21.71778       10.05110       -0.46129
H         22.63886        8.90994        2.26540
H         23.66392        9.77900        1.11256
H         23.02519        8.19157        0.68567
