67

C         18.54965       -3.56121       -6.49969
C         18.21854       -2.09496       -6.21502
C         16.74372       -1.86185       -5.87179
C         16.41585       -0.40234       -5.54527
C         14.94344       -0.15918       -5.20027
C         14.64210        1.29358       -4.82034
C         13.17235        1.56000       -4.48162
C         12.91161        2.99766       -4.01981
C         11.43336        3.28874       -3.72572
C         11.12125        4.58801       -2.96373
C         11.41932        5.91727       -3.68131
C         12.88838        6.37135       -3.64627
C         13.07819        7.79373       -4.19392
C         14.52873        8.24537       -4.39283
C         15.37003        7.54618       -5.47548
C         14.99646        8.00300       -6.89381
C         15.52441        7.09246       -8.01027
N         16.99222        7.03331       -8.02530
C         16.80771        7.87126       -5.03738
C         16.79637        7.69603       -3.52312
N         15.34213        8.02168       -3.10524
C         15.29629        9.21570       -2.10881
O         15.34568       10.31546       -2.56451
C         15.21187        8.78786       -0.68165
H         19.61012       -3.69321       -6.75376
H         17.95502       -3.94807       -7.34018
H         18.33553       -4.19332       -5.62541
H         18.48704       -1.47947       -7.09015
H         18.84535       -1.72975       -5.38406
H         16.46596       -2.49729       -5.01274
H         16.11545       -2.20084       -6.71381
H         16.69924        0.23544       -6.40152
H         17.04589       -0.07204       -4.70013
H         14.64963       -0.81957       -4.36619
H         14.31226       -0.45338       -6.05656
H         14.95120        1.95781       -5.64786
H         15.26945        1.57445       -3.95483
H         12.84482        0.86392       -3.69074
H         12.54480        1.33670       -5.36129
H         13.28826        3.68480       -4.79778
H         13.51254        3.19388       -3.11270
H         11.03079        2.45392       -3.12882
H         10.86442        3.27837       -4.67105
H         11.64521        4.57643       -1.99093
H         10.04820        4.57846       -2.71946
H         10.80784        6.71045       -3.21992
H         11.08967        5.85508       -4.73253
H         13.51310        5.65925       -4.20444
H         13.21961        6.31266       -2.58878
H         12.54861        8.51737       -3.55288
H         12.59214        7.87436       -5.17882
H         14.57283        9.33279       -4.55840
H         15.21328        6.45438       -5.40629
H         15.35351        9.03616       -7.04861
H         13.89987        8.04014       -6.99270
H         15.08293        7.43296       -8.96536
H         15.15064        6.07017       -7.84123
H         17.37758        7.88780       -8.43217
H         17.30878        6.27110       -8.62492
H         17.04988        8.91227       -5.29863
H         17.54508        7.22612       -5.52746
H         17.47734        8.36575       -2.98440
H         16.98807        6.66214       -3.21113
H         14.94455        7.19770       -2.63402
H         16.00736        8.06709       -0.43900
H         14.24982        8.28053       -0.50325
H         15.28731        9.66356       -0.03017
