58

C          1.44126        0.59363        0.34792
C          2.80506        0.71236       -0.33719
C          3.43412       -0.64608       -0.66770
C          4.77686       -0.53429       -1.39856
C          5.38709       -1.89771       -1.74258
C          6.68280       -1.76322       -2.54934
N          7.27212       -3.07076       -2.91650
C          8.01535       -3.81084       -1.87464
C          7.31604       -5.13703       -1.57023
C          7.24015       -5.96636       -2.84877
N          6.89575       -5.11813       -3.99182
C          6.81509       -3.79119       -3.95639
N          6.26611       -3.15327       -5.05961
C          5.09931       -3.73521       -5.72218
C          5.46559       -4.76002       -6.81447
O          6.31033       -5.64111       -6.57774
N          4.80194       -4.66407       -7.97649
C          4.97395       -5.59734       -9.09562
C          4.60657       -4.93541      -10.42190
C          4.73574       -5.89812      -11.60859
C          4.33912       -5.25905      -12.94140
C          6.97146       -2.09364       -5.66743
C          6.60684       -1.42146       -6.76604
H          1.02163        1.58234        0.57448
H          1.51455        0.03967        1.29528
H          0.71749        0.06505       -0.29029
H          3.49462        1.28426        0.30593
H          2.70141        1.29834       -1.26586
H          2.73128       -1.23093       -1.28710
H          3.56886       -1.22320        0.26353
H          5.48700        0.04105       -0.78035
H          4.63996        0.04834       -2.32614
H          4.66535       -2.48999       -2.33094
H          5.57342       -2.46402       -0.81521
H          7.45229       -1.22172       -1.98144
H          6.49854       -1.18321       -3.46099
H          8.06647       -3.16924       -0.98822
H          9.04658       -3.97822       -2.22408
H          6.30855       -4.93399       -1.17854
H          7.86259       -5.69444       -0.79876
H          6.48995       -6.76593       -2.76602
H          8.20744       -6.44713       -3.06208
H          6.75563       -5.53040       -4.95112
H          4.48032       -2.91331       -6.10864
H          4.50070       -4.26115       -4.96490
H          4.12476       -3.91603       -8.09190
H          4.35165       -6.49085       -8.92222
H          6.02142       -5.92877       -9.08608
H          5.25152       -4.05549      -10.58240
H          3.56787       -4.56186      -10.37106
H          4.11031       -6.78682      -11.42366
H          5.77419       -6.26298      -11.66674
H          3.29485       -4.91430      -12.92639
H          4.43941       -5.97473      -13.76762
H          4.97286       -4.39137      -13.17593
H          7.91337       -1.87078       -5.16596
H          5.69760       -1.61478       -7.33134
H          7.26129       -0.63850       -7.14010
