80

C         11.22501        5.71917      -17.78609
C         11.05429        4.67395      -16.68029
C         11.22059        5.25584      -15.27258
C         11.04766        4.22965      -14.14774
C         11.17601        4.84479      -12.75092
C         10.96338        3.85247      -11.60230
C         11.02299        4.52950      -10.22617
C         10.64124        3.63952       -9.03391
C         11.63556        2.52733       -8.73952
O         11.18775        1.84784       -7.54635
C         12.06406        0.85411       -7.04703
C         13.10520        1.43308       -6.05339
O         13.71625        0.40616       -5.27217
C         12.86985       -0.04094       -4.22138
C         12.60712        1.06528       -3.21155
N         11.99989        2.32547       -3.82675
C         12.64542        2.62377       -5.18884
C         10.47256        2.29857       -3.86415
C          9.71734        1.24745       -4.69388
O          8.33182        1.50998       -4.51532
C         12.38443        3.52279       -2.93290
C         11.82660        3.50765       -1.51240
C         12.70866        4.38525       -0.60865
S         12.35216        4.16765        1.15038
C         13.23788        2.64203        1.51413
S         14.07267        1.77120        0.34720
N         13.16296        2.28717        2.81239
C         12.45610        3.08210        3.83289
C         11.00240        2.64874        4.03852
C         13.82376        1.06185        3.30212
C         15.25275        1.31932        3.78166
H         11.09191        5.27709      -18.78298
H         12.22645        6.17436      -17.75561
H         10.49035        6.53208      -17.68320
H         11.78248        3.85794      -16.82666
H         10.05772        4.20749      -16.76410
H         10.49116        6.07336      -15.13133
H         12.21675        5.72571      -15.18826
H         11.79171        3.42237      -14.26785
H         10.05919        3.74636      -14.24364
H         10.44468        5.66643      -12.65151
H         12.17022        5.31480      -12.64833
H         11.71589        3.04802      -11.67242
H          9.98116        3.36159      -11.72140
H         10.33781        5.39223      -10.23230
H         12.03055        4.95226      -10.06533
H          9.64810        3.19159       -9.19892
H         10.55488        4.26334       -8.12884
H         12.64740        2.95016       -8.58645
H         11.69794        1.79670       -9.56451
H         12.61077        0.34258       -7.85629
H         11.44112        0.09216       -6.55739
H         13.93157        1.85156       -6.64823
H         13.41465       -0.84161       -3.70339
H         11.93712       -0.48017       -4.61071
H         13.55418        1.37285       -2.75117
H         11.93773        0.72479       -2.41295
H         13.53720        3.21235       -4.94811
H         11.94109        3.24873       -5.75226
H         10.16509        3.29152       -4.21891
H         10.16286        2.20127       -2.81638
H          9.97580        0.21960       -4.39564
H          9.91296        1.37372       -5.76478
H          8.01494        1.06733       -3.71231
H         12.07376        4.41928       -3.48756
H         13.48173        3.50061       -2.90036
H         11.86613        2.49080       -1.09845
H         10.78823        3.86273       -1.47745
H         12.55298        5.45832       -0.79038
H         13.77192        4.14160       -0.75136
H         12.51684        4.14463        3.55699
H         13.02611        2.97660        4.76688
H         10.41752        2.76938        3.11752
H         10.53883        3.26462        4.82064
H         10.93778        1.59906        4.35489
H         13.81626        0.33267        2.48264
H         13.19956        0.67015        4.11839
H         15.87869        1.68459        2.95801
H         15.69028        0.38483        4.15704
H         15.28255        2.05439        4.59784
