82

C          1.82581        0.02481       -1.49583
C          3.26406       -0.02390       -0.97588
C          3.37830       -0.65478        0.41770
C          4.82307       -0.69040        0.93273
C          4.89082       -1.26719        2.34992
N          6.26723       -1.36654        2.88452
C          7.20377       -0.25855        2.57414
O          8.26619       -0.24713        3.48096
C          8.89383       -1.52065        3.59379
N          7.89540       -2.45031        4.18031
C          6.60521       -2.28354        3.80866
N          5.64415       -3.06974        4.34740
C          8.25928       -3.23669        5.37037
C          8.43975       -4.73712        5.07088
C          8.61304       -5.63961        6.29837
C         10.08227       -5.95423        6.77420
C         11.03638       -4.79923        7.26723
C         10.62496       -3.95628        8.52967
F         10.27849       -4.74482        9.55262
F         11.66306       -3.18857        8.89068
F          9.58282       -3.14026        8.23225
F         12.22551       -5.37648        7.54074
F         11.21356       -3.91716        6.22976
F         10.00978       -6.87531        7.76309
F         10.71873       -6.51178        5.70166
F          7.89552       -5.16300        7.37000
F          8.08948       -6.86763        5.98897
C          9.55103       -2.01486        2.30220
C         10.51780       -3.18117        2.54805
C         11.44266       -3.44000        1.35730
S         12.63455       -4.71252        1.86995
C         13.43897       -5.09117        0.30611
S         12.95499       -4.47014       -1.14940
N         14.50038       -5.93570        0.48708
C         14.78444       -6.55112        1.76183
C         15.91504       -6.15155        2.48479
C         16.20000       -6.75888        3.70771
C         15.36349       -7.76236        4.20765
C         14.24334       -8.16698        3.47655
C         13.95359       -7.56819        2.24908
C         15.42439       -6.22569       -0.58554
C         15.52191       -7.53212       -1.06969
C         16.45089       -7.82652       -2.07025
C         17.27737       -6.82192       -2.57929
C         17.17800       -5.51797       -2.08335
C         16.25388       -5.21582       -1.08387
H          1.78102        0.48399       -2.49170
H          1.17816        0.61357       -0.83001
H          1.39316       -0.98301       -1.57573
H          3.68034        0.99687       -0.94381
H          3.89535       -0.58818       -1.68216
H          2.96790       -1.67899        0.39336
H          2.74956       -0.08822        1.12644
H          5.22791        0.33343        0.91081
H          5.44636       -1.29901        0.25781
H          4.46810       -2.28181        2.32749
H          4.27800       -0.65123        3.03336
H          6.67508        0.69580        2.70570
H          7.54150       -0.35197        1.52864
H          9.66514       -1.38017        4.36363
H          5.88062       -3.76345        5.04350
H          4.67582       -2.78035        4.31088
H          7.50509       -3.08293        6.15606
H          9.18779       -2.80391        5.75417
H          9.29104       -4.90105        4.40059
H          7.55764       -5.13488        4.54798
H         10.10765       -1.15488        1.89737
H          8.79676       -2.29965        1.55283
H          9.95518       -4.10267        2.75578
H         11.12395       -2.96739        3.44526
H         11.99020       -2.53195        1.06709
H         10.90265       -3.80106        0.47100
H         16.56132       -5.37082        2.08321
H         17.08007       -6.44901        4.27212
H         15.59314       -8.23830        5.16146
H         13.59887       -8.96130        3.85464
H         13.08998       -7.88236        1.66237
H         14.87260       -8.30950       -0.66641
H         16.52555       -8.84445       -2.45376
H         18.00010       -7.05417       -3.36185
H         17.82434       -4.73194       -2.47505
H         16.16310       -4.20187       -0.69460
