77

C          1.29049       -0.50823        0.14546
C          2.65177        0.15265        0.37040
C          3.08303        1.06067       -0.78779
C          4.44284        1.72723       -0.54952
C          4.87362        2.61243       -1.70561
O          6.16205        3.17443       -1.39459
C          6.64126        4.04133       -2.38776
C          8.05338        4.45350       -1.98391
C          8.49645        5.71917       -2.70884
N          9.92316        6.02191       -2.30417
C         10.86160        4.85170       -2.56158
C         10.31912        3.51937       -1.97177
O          8.92836        3.37133       -2.30759
C         10.65010        3.27165       -0.47857
C         10.38398        4.38837        0.53901
C         11.22968        4.34723        1.82463
C         10.79364        3.40369        3.01357
C         10.79899        1.82759        2.88537
C         12.10455        1.00849        2.52302
C         13.41921        1.09836        3.39960
C         13.43558        0.68481        4.92654
C         13.05343       -0.77748        5.39528
C         13.85356       -1.99959        4.80866
F         15.17831       -1.79997        4.90861
F         13.52276       -3.09624        5.51006
F         13.53650       -2.20818        3.51759
F         13.25193       -0.78083        6.73796
F         11.73369       -0.98595        5.15404
F         14.70407        0.92765        5.34248
F         12.60048        1.52378        5.59412
F         14.33745        0.33341        2.75572
F         13.84430        2.38915        3.36019
F         11.71384       -0.28760        2.46994
F         12.47908        1.38208        1.26627
F         10.31594        1.35600        4.05605
F          9.89540        1.50950        1.90464
F         11.53937        3.73732        4.09002
F          9.48849        3.72561        3.27744
F         12.54165        4.12876        1.52232
F         11.15244        5.61073        2.37029
C         11.02782        2.43415       -2.74543
N         12.10150        1.79058       -2.40272
N         12.43064        0.95679       -3.46016
C         11.52364        1.16736       -4.38491
O         10.59193        2.11419       -4.00684
S         11.45015        0.38775       -5.92578
C          9.85313        0.99477       -6.59715
C          9.65513        0.35416       -7.96967
H          1.01967       -1.16149        0.98560
H          1.28993       -1.12424       -0.76614
H          0.49292        0.24177        0.03814
H          3.41949       -0.62436        0.52355
H          2.62806        0.74161        1.30256
H          2.31290        1.83538       -0.94826
H          3.11730        0.46884       -1.71923
H          5.21573        0.95881       -0.38766
H          4.40660        2.33635        0.36790
H          4.14626        3.43129       -1.87071
H          4.94633        2.03261       -2.64610
H          6.00080        4.94517       -2.48105
H          6.68260        3.55323       -3.38268
H          8.03486        4.63478       -0.89251
H          7.88478        6.58962       -2.43966
H          8.49353        5.58216       -3.79879
H          9.93891        6.25772       -1.30038
H         10.26982        6.85018       -2.80626
H         11.84288        5.10726       -2.14223
H         10.94089        4.77245       -3.65260
H         11.71480        3.00448       -0.45039
H         10.10087        2.36496       -0.20339
H          9.33011        4.45717        0.83950
H         10.68482        5.37635        0.14835
H          9.89521        2.08922       -6.66880
H          9.05511        0.71084       -5.89922
H         10.45674        0.63289       -8.66648
H          8.70327        0.69591       -8.39694
H          9.61991       -0.74124       -7.90342
