106

C         15.04741        8.00992       -0.64777
C         14.18829        6.74713       -0.54651
C         14.57812        5.66162       -1.55620
C         13.72039        4.39623       -1.45542
C         14.10562        3.30800       -2.46227
C         13.24926        2.04191       -2.35240
C         13.63834        0.95718       -3.36043
C         12.79437       -0.31885       -3.25643
C         13.21699       -1.37385       -4.28331
C         12.40606       -2.65792       -4.22540
O         12.90947       -3.51366       -5.26923
C         12.27965       -4.76121       -5.40391
C         12.88169       -5.43871       -6.64491
C         12.21646       -6.79392       -6.95118
S         13.40913       -8.09446       -6.45167
C         14.68640       -6.96495       -6.29621
N         14.33758       -5.70269       -6.46586
C         15.30653       -4.58652       -6.45495
O         16.20016       -4.77042       -7.51882
C         17.19540       -3.71963       -7.52570
C         18.18647       -3.95791       -8.64908
C         19.23138       -2.83518       -8.70158
C         20.28925       -3.01464       -9.79518
C         21.28289       -1.84948       -9.84148
C         22.36640       -1.98516      -10.91539
C         23.32497       -0.79054      -10.94789
C         24.41717       -0.89156      -12.01683
C         25.36504        0.31179      -12.02742
C         26.45840        0.23422      -13.09833
C         27.40150        1.43985      -13.08567
C         16.05938       -7.43230       -5.95413
C         16.31587       -7.44271       -4.42274
C         17.74845       -7.89194       -4.11628
C         18.05754       -7.95059       -2.61703
C         19.49527       -8.39609       -2.32509
C         19.82676       -8.46020       -0.83100
C         21.26480       -8.90826       -0.54500
C         21.59401       -8.97074        0.94829
H         14.74287        8.76487        0.08989
H         14.96739        8.46899       -1.64456
H         16.11041        7.78545       -0.47340
H         13.12675        7.01052       -0.69075
H         14.25957        6.33358        0.47385
H         15.64075        5.39587       -1.41367
H         14.50577        6.07238       -2.57899
H         12.65837        4.66341       -1.59692
H         13.79382        3.98724       -0.43224
H         15.16871        3.04218       -2.32431
H         14.02730        3.71354       -3.48652
H         12.18634        2.30598       -2.49132
H         13.32843        1.63529       -1.32893
H         14.70359        0.69887       -3.22527
H         13.55445        1.36341       -4.38382
H         11.72945       -0.06741       -3.39842
H         12.87874       -0.73341       -2.23723
H         14.28088       -1.62644       -4.13884
H         13.12848       -0.95709       -5.30007
H         11.33038       -2.46556       -4.39581
H         12.51277       -3.16318       -3.24727
H         11.18886       -4.65648       -5.57197
H         12.42460       -5.40062       -4.50810
H         12.77980       -4.75314       -7.49859
H         12.00464       -6.93114       -8.01769
H         11.28928       -6.93357       -6.38279
H         15.82421       -4.57684       -5.47604
H         14.72527       -3.65781       -6.54012
H         17.70953       -3.70668       -6.54502
H         16.68626       -2.74548       -7.64942
H         17.64302       -4.01790       -9.60518
H         18.68003       -4.93189       -8.49940
H         19.73606       -2.75795       -7.72260
H         18.71788       -1.86993       -8.85356
H         19.79206       -3.11473      -10.77549
H         20.83317       -3.96098       -9.63100
H         21.76427       -1.74427       -8.85301
H         20.72743       -0.90921      -10.00544
H         21.89004       -2.10046      -11.90486
H         22.93968       -2.91337      -10.74549
H         23.79757       -0.67828       -9.95592
H         22.74430        0.13495      -11.10907
H         23.94743       -0.99637      -13.01081
H         25.00019       -1.81615      -11.85988
H         25.83715        0.41133      -11.03369
H         24.77861        1.23630      -12.17399
H         25.98677        0.14479      -14.09176
H         27.04064       -0.69217      -12.95706
H         26.85254        2.37834      -13.25474
H         28.16973        1.36004      -13.86702
H         27.91956        1.53133      -12.11923
H         16.78481       -6.78317       -6.46299
H         16.19189       -8.44888       -6.35014
H         15.59235       -8.11612       -3.93695
H         16.13834       -6.43767       -4.00711
H         18.45757       -7.20766       -4.61313
H         17.91964       -8.88555       -4.56468
H         17.35178       -8.64046       -2.12310
H         17.88174       -6.95872       -2.16526
H         20.19838       -7.70808       -2.82644
H         19.66719       -9.38732       -2.77986
H         19.12385       -9.14795       -0.32880
H         19.65647       -7.46873       -0.37520
H         21.96548       -8.22176       -1.04978
H         21.43204       -9.89859       -1.00137
H         21.47715       -7.98616        1.42519
H         22.62809       -9.29964        1.11752
H         20.93180       -9.67353        1.47524
