51

C          1.24138       -0.95593       -0.70022
C          2.71500       -0.63183       -0.61886
O          3.25367       -1.28234        0.57565
C          4.58862       -0.96819        0.81237
N          5.12716       -2.16550        1.53931
C          4.88490       -3.44356        1.18681
N          5.37312       -4.25796        2.12780
N          5.92870       -3.50141        3.05991
N          5.77966       -2.24022        2.73135
C          6.42618       -1.11975        3.57066
C          7.37064       -0.31567        2.62139
C          8.12301        0.78579        3.38768
C          8.35740       -1.20401        1.84837
C          5.28519       -0.27311        4.21815
O          4.67362        0.67669        3.35839
C          7.15721       -1.83291        4.71500
C          4.30709       -3.83249       -0.16523
O          4.74284       -3.31856       -1.16348
C          3.14340       -4.87407       -0.17974
C          3.47687       -6.26950       -0.83459
C          4.60199       -7.09313       -0.11413
C          4.20244       -7.74420        1.25588
O          3.55536       -8.75421        1.26482
O          4.63322       -7.11527        2.35929
F          5.00511       -8.06391       -0.95077
F          5.66595       -6.20336        0.04963
F          2.33238       -6.98275       -0.86211
F          3.88041       -6.02515       -2.10681
F          2.70953       -5.06835        1.09990
F          2.13744       -4.31970       -0.90085
H          0.81794       -0.48438       -1.59689
H          0.70284       -0.57147        0.17499
H          1.07418       -2.03693       -0.77426
H          2.88159        0.45483       -0.53398
H          3.27419       -1.00763       -1.49406
H          4.71704       -0.10143        1.47619
H          5.18249       -0.87390       -0.11408
H          6.72170        0.19793        1.89519
H          8.88814        0.37171        4.05736
H          7.46251        1.43022        3.98328
H          8.63813        1.43206        2.66587
H          9.04976       -1.73201        2.51785
H          8.96566       -0.57810        1.18336
H          7.86601       -1.95400        1.21239
H          5.72063        0.21229        5.10198
H          4.50570       -0.96266        4.57875
H          4.95984        1.56977        3.60164
H          7.90880       -2.54408        4.35921
H          6.46156       -2.37209        5.36914
H          7.66043       -1.06569        5.31388
H          5.11516       -6.28221        2.15689
