87

C          1.56250      -12.97655       12.21612
C          3.08144      -12.88355       12.04891
C          3.51039      -11.96264       10.90150
C          5.02887      -11.85920       10.72274
C          5.44414      -10.90969        9.59422
C          6.96043      -10.78144        9.41493
C          7.35877       -9.78921        8.31714
C          8.87281       -9.65990        8.11871
C          9.25197       -8.62657        7.05135
C         10.76689       -8.50202        6.83779
C         11.11095       -7.44888        5.80055
O         12.55006       -7.40274        5.63893
C         12.99284       -6.44770        4.69842
C         14.53182       -6.55952        4.63609
N         14.90131       -8.04668        4.72272
C         15.50909       -8.48328        3.40401
C         15.09686       -7.39187        2.40498
C         15.10106       -6.11570        3.27161
C         15.99019       -7.27963        1.16248
C         15.89892       -8.46828        0.19930
N         16.37903       -9.70681        0.83211
C         15.21802       -5.95781        5.82250
N         16.04697       -6.59154        6.59187
N         16.51663       -5.67728        7.53249
C         15.92285       -4.54311        7.25014
O         15.06815       -4.65271        6.15277
S         16.02088       -2.98989        7.98774
C         17.28146       -3.31179        9.28377
C         17.45468       -2.02063       10.08622
C         18.53006       -2.15941       11.17274
C         18.67879       -0.88697       12.01491
C         19.74954       -0.99457       13.10504
C         19.88041        0.27427       13.95562
C         20.95370        0.16755       15.04164
H          1.28812      -13.64231       13.04586
H          1.08299      -13.36622       11.30575
H          1.12203      -11.98978       12.42334
H          3.49635      -13.89176       11.87997
H          3.53459      -12.52557       12.98901
H          3.09524      -10.95341       11.07250
H          3.05516      -12.31799        9.95999
H          5.44505      -12.86388       10.53052
H          5.48502      -11.52027       11.66975
H          5.01645       -9.91001        9.78775
H          4.99264      -11.25026        8.64566
H          7.38858      -11.77359        9.18736
H          7.41596      -10.46852       10.37097
H          6.93799       -8.79677        8.55680
H          6.89115      -10.09165        7.36367
H          9.29263      -10.64329        7.84381
H          9.34671       -9.38506        9.07692
H          8.83970       -7.64371        7.33787
H          8.76628       -8.89376        6.09697
H         11.17953       -9.47310        6.51722
H         11.26254       -8.24316        7.78696
H         10.76033       -6.45013        6.11586
H         10.64900       -7.67999        4.82258
H         12.72386       -5.41689        4.99043
H         12.55906       -6.64192        3.69825
H         14.02872       -8.53870        4.99030
H         15.56781       -8.13053        5.52303
H         15.17035       -9.48969        3.14807
H         16.59721       -8.50980        3.54418
H         14.06414       -7.59586        2.07163
H         14.50226       -5.30330        2.83996
H         16.12843       -5.74280        3.39680
H         17.03841       -7.13741        1.48023
H         15.71143       -6.36611        0.61468
H         16.43783       -8.20567       -0.72898
H         14.84653       -8.62345       -0.08600
H         17.40028       -9.71843        0.86100
H         16.10697      -10.51869        0.27749
H         18.20993       -3.61603        8.78281
H         16.92604       -4.14216        9.90746
H         16.49425       -1.74498       10.55181
H         17.72459       -1.19426        9.40797
H         19.49703       -2.40772       10.70277
H         18.28072       -3.00922       11.83092
H         17.70733       -0.64487       12.48021
H         18.91647       -0.03680       11.35171
H         20.72462       -1.22530       12.64095
H         19.51775       -1.85103       13.76248
H         18.90560        0.50024       14.42033
H         20.10587        1.13021       13.29696
H         20.74243       -0.66098       15.73423
H         21.01589        1.08892       15.63628
H         21.94763       -0.01265       14.60520
