84

C          5.44733       -0.59761      -10.26236
C          6.01193       -1.90749       -9.70735
C          6.67516       -1.74741       -8.33522
C          7.18903       -3.06111       -7.73734
C          7.78388       -2.89631       -6.33560
C          8.20536       -4.21372       -5.67596
C          8.67734       -4.03208       -4.23023
C          8.98994       -5.34088       -3.49794
C          9.31815       -5.11474       -2.01817
C          9.53485       -6.37665       -1.20126
O         10.73765       -7.03172       -1.62624
C         11.11575       -8.07291       -0.75041
C         12.49963       -8.64706       -1.14648
C         12.28728       -9.67827       -2.29314
C         13.50124      -10.48879       -2.76855
C         13.20028      -11.35023       -4.00200
C         14.40441      -12.18601       -4.45073
C         14.14985      -13.01433       -5.71394
C         15.35624      -13.85814       -6.14314
C         15.10582      -14.66816       -7.41741
C         13.11685       -9.32929        0.09793
C         13.55987       -8.34783        1.17677
N         14.52046       -7.32730        0.62146
C         14.00790       -6.55886       -0.60322
C         13.46515       -7.54256       -1.64329
C         13.08434       -5.42360       -0.14208
C         13.82370       -4.35943        0.68261
C         12.92224       -3.21915        1.15269
O         12.08951       -3.77895        2.18022
O         14.44253       -4.96324        1.85353
H          4.98186       -0.74391      -11.24669
H          6.23523        0.16167      -10.37768
H          4.68158       -0.17834       -9.59261
H          6.74306       -2.32708      -10.41909
H          5.20301       -2.65394       -9.63181
H          5.95042       -1.29360       -7.63575
H          7.50801       -1.02615       -8.41305
H          7.94198       -3.50614       -8.41133
H          6.35774       -3.78684       -7.69290
H          7.03997       -2.39765       -5.68907
H          8.64914       -2.21143       -6.37961
H          8.99979       -4.69489       -6.27284
H          7.35104       -4.91312       -5.69007
H          7.89616       -3.48890       -3.66925
H          9.56714       -3.37749       -4.21223
H          9.82441       -5.86331       -3.99345
H          8.11979       -6.01617       -3.57122
H          8.49035       -4.56069       -1.54448
H         10.20950       -4.47032       -1.92024
H          8.67748       -7.06952       -1.30511
H          9.62622       -6.12467       -0.12518
H         10.37223       -8.89433       -0.76435
H         11.12160       -7.68443        0.29004
H         11.85661       -9.13151       -3.14826
H         11.50433      -10.38262       -1.96577
H         13.86006      -11.15079       -1.96237
H         14.34738       -9.82542       -3.01716
H         12.87406      -10.69749       -4.82991
H         12.34762      -12.01696       -3.78730
H         14.70662      -12.85877       -3.62859
H         15.26631      -11.51719       -4.62483
H         13.86371      -12.34088       -6.54095
H         13.28176      -13.67669       -5.55050
H         15.63267      -14.53935       -5.32054
H         16.22672      -13.19658       -6.29184
H         14.26107      -15.36153       -7.29161
H         15.98575      -15.26517       -7.69310
H         14.87043      -14.01212       -8.26839
H         13.98143       -9.94034       -0.20511
H         12.39712      -10.03055        0.54873
H         14.07804       -8.85370        2.00199
H         12.72257       -7.78429        1.60670
H         15.40275       -7.79207        0.37681
H         14.70578       -6.57525        1.34227
H         14.91792       -6.09311       -1.01649
H         14.33173       -8.03772       -2.10710
H         12.97552       -6.96136       -2.43528
H         12.21783       -5.79621        0.42219
H         12.67364       -4.95923       -1.04968
H         14.64987       -3.93599        0.08888
H         12.32236       -2.83315        0.31161
H         13.54389       -2.40191        1.55243
H         11.69064       -3.06220        2.69609
H         13.78696       -4.83899        2.57251
