97

C          2.63506        2.77216        0.66266
C          3.53300        2.43322        1.59396
C          4.04351        1.04524        1.69643
O          3.74194        0.10788        0.97973
O          4.92475        0.94757        2.74123
C          5.47853       -0.36653        2.97352
C          6.71469       -0.62156        2.11381
C          7.30725       -2.00832        2.38225
C          8.52190       -2.32526        1.50244
C          9.07160       -3.73375        1.75484
C         10.29423       -4.02696        0.88315
N         10.81806       -5.40092        1.11105
C         11.48187       -5.69560        2.26993
N         11.80900       -6.95644        2.33631
N         11.33801       -7.49214        1.17454
C         10.71866       -6.56882        0.39343
C         10.08632       -6.73359       -0.99288
C          8.58342       -6.26424       -0.92547
C          7.85260       -6.36030       -2.27413
C          7.78465       -7.00341        0.15843
C         10.93234       -5.90409       -2.04024
O         10.71299       -4.50161       -2.06910
C         10.17752       -8.17680       -1.53439
C         11.51415       -8.95889        1.06917
C         10.29872       -9.73654        1.58201
C         10.41355      -11.23279        1.26223
C          9.07762      -11.97040        1.40589
C          9.15545      -13.45314        1.02496
C          7.77896      -14.10496        0.85809
C          7.83917      -15.58649        0.47048
C          6.47917      -16.15697        0.05513
C          6.50859      -17.65326       -0.27159
C          5.18633      -18.17617       -0.84404
C          5.17381      -19.69219       -1.05882
C          3.90416      -20.17554       -1.77312
N          3.82704      -21.62354       -1.89890
C          4.50075      -22.38476       -2.83019
C          4.25004      -23.71881       -2.56156
C          3.39922      -23.76826       -1.42212
C          3.15928      -22.46263       -1.03276
H          2.25079        3.78870        0.58656
H          2.26235        2.02866       -0.04377
H          3.92039        3.15244        2.31683
H          4.70344       -1.12053        2.77270
H          5.72836       -0.37615        4.04349
H          7.46409        0.16019        2.31601
H          6.43234       -0.53610        1.05337
H          6.53042       -2.77427        2.21420
H          7.59499       -2.09297        3.44456
H          9.31400       -1.57858        1.68179
H          8.24160       -2.22462        0.44011
H          8.28656       -4.47886        1.55318
H          9.33485       -3.84314        2.81981
H         11.12453       -3.34835        1.12584
H         10.09988       -3.91125       -0.18552
H         11.71408       -4.95732        3.03069
H          8.60082       -5.19801       -0.65991
H          7.64552       -7.39886       -2.56497
H          8.39525       -5.88447       -3.10289
H          6.88296       -5.85189       -2.19392
H          7.64979       -8.06669       -0.08607
H          6.78124       -6.56702        0.24835
H          8.25395       -6.94393        1.15080
H         10.73804       -6.34340       -3.02915
H         12.00012       -6.06072       -1.82175
H         10.08921       -4.29191       -2.78047
H          9.71869       -8.92570       -0.88291
H         11.21405       -8.47059       -1.74393
H          9.64627       -8.21366       -2.49132
H         12.40322       -9.16426        1.67674
H         11.74910       -9.21391        0.03367
H          9.38581       -9.33694        1.11437
H         10.18805       -9.57165        2.66462
H         11.18066      -11.69808        1.90238
H         10.76995      -11.35558        0.22385
H          8.33267      -11.47288        0.75865
H          8.69853      -11.86690        2.43669
H          9.74479      -14.00037        1.77997
H          9.71207      -13.55373        0.07640
H          7.21957      -13.55227        0.08202
H          7.19530      -13.99037        1.78784
H          8.24908      -16.17138        1.31174
H          8.55244      -15.71662       -0.36254
H          6.11203      -15.59864       -0.82437
H          5.74161      -15.97420        0.85608
H          6.76659      -18.22107        0.63902
H          7.31935      -17.85675       -0.99287
H          4.98292      -17.66386       -1.80137
H          4.35762      -17.89533       -0.17049
H          5.25574      -20.21235       -0.09077
H          6.05363      -19.99758       -1.64891
H          3.84349      -19.73423       -2.78100
H          3.00892      -19.84210       -1.22649
H          5.09580      -21.91387       -3.60643
H          4.62755      -24.56196       -3.13107
H          2.99372      -24.65633       -0.94779
H          2.56157      -22.05799       -0.22211
