43

N          3.46303       -0.51269        2.83085
C          2.65168       -1.59885        2.27583
C          2.78443       -1.61246        0.74032
C          4.24052       -1.71780        0.26892
C          4.88008       -3.05022        0.32619
N          4.19480       -4.12719        0.62784
C          4.98135       -5.32296        0.87236
C          6.35732       -4.93291        0.33594
C          6.34574       -3.38317        0.26916
C          7.32648       -2.76251       -0.80128
C          7.03978       -3.27853       -2.25530
C          5.57768       -3.17371       -2.71448
C          7.94930       -2.62712       -3.31523
C          7.28173       -1.21869       -0.74883
O          7.26517       -0.79631        0.61889
C          8.73954       -3.21001       -0.35615
I          4.92622       -5.74704        3.02352
H          3.61051       -0.63636        3.83140
H          2.99866        0.38870        2.71305
H          1.57818       -1.54643        2.53366
H          3.02612       -2.54066        2.71001
H          2.38105       -0.66688        0.34785
H          2.13747       -2.39038        0.29894
H          4.86883       -1.05528        0.89947
H          4.37079       -1.32882       -0.75314
H          3.19474       -4.09469        0.83069
H          4.52220       -6.20490        0.41844
H          6.46399       -5.35992       -0.67202
H          7.17048       -5.32766        0.94982
H          6.70732       -2.96264        1.23124
H          7.30119       -4.35071       -2.24838
H          5.23149       -2.13179       -2.77528
H          4.87770       -3.73063       -2.07535
H          5.47476       -3.59786       -3.72219
H          7.70075       -1.56868       -3.47802
H          7.81503       -3.13917       -4.27675
H          9.01377       -2.69368       -3.06087
H          6.40185       -0.82244       -1.28647
H          8.17486       -0.83129       -1.26178
H          7.55600        0.12627        0.66992
H          8.87085       -4.29747       -0.43297
H          8.93711       -2.90856        0.68073
H          9.50963       -2.74595       -0.98297
