51

O          4.42171        2.27913        0.15738
C          3.68987        1.44850       -0.38438
C          2.36648        1.80162       -0.92489
C          1.48297        0.85122       -1.47602
C          0.24090        1.25236       -1.96098
C         -0.12919        2.60047       -1.90667
C          0.74294        3.55240       -1.36399
C          1.98138        3.15827       -0.87316
C          4.16307       -0.02107       -0.50613
C          5.55081       -0.24500       -0.01698
N          6.35401        0.62900        0.58170
N          7.56749        0.11336        0.89663
C          7.51878       -1.13380        0.47912
N          6.27427       -1.39349       -0.09440
C          5.83575       -2.64648       -0.66181
C          6.13890       -2.94491       -1.98860
C          5.70640       -4.18332       -2.47662
N          5.02897       -5.07370       -1.73959
C          4.75616       -4.76093       -0.46587
C          5.13756       -3.55422        0.13158
C          8.60497       -2.14517        0.57461
C          9.83672       -1.59135        1.30017
C         11.10145       -2.44860        1.18086
C         11.35104       -3.57640        2.25220
C         10.37483       -4.80907        2.37830
C         10.17275       -5.75721        1.13953
F         11.34108       -6.11177        0.59563
F          9.51754       -6.85722        1.54234
F          9.41573       -5.14621        0.19316
F         10.85056       -5.56912        3.38861
F          9.13409       -4.34447        2.73926
F         12.59538       -4.06946        2.05085
F         11.31512       -2.96686        3.47418
F         11.19742       -3.01606       -0.06710
F         12.17534       -1.61206        1.32425
H          1.74876       -0.20543       -1.52642
H         -0.44220        0.51514       -2.38215
H         -1.10284        2.91056       -2.28710
H          0.45025        4.60155       -1.32391
H          2.67231        3.88403       -0.44541
H          4.09321       -0.35671       -1.55319
H          3.47277       -0.67136        0.05723
H          6.05422        1.60364        0.74181
H          6.69381       -2.24806       -2.61701
H          5.91807       -4.46984       -3.50958
H          4.20812       -5.50964        0.11131
H          4.90809       -3.33942        1.17579
H          8.87673       -2.46356       -0.44440
H          8.20395       -3.04023        1.07060
H          9.63031       -1.41351        2.36365
H         10.11456       -0.62078        0.86702
