57

C          1.08946       -2.68091       -1.70166
C          2.57727       -2.43287       -1.43951
C          3.24987       -1.64543       -2.57382
C          4.73086       -1.39305       -2.28513
S          5.43545       -0.49600       -3.72527
C          7.02965       -0.19859       -3.15709
N          7.61121       -0.51987       -2.01713
N          8.89478       -0.01323       -2.07574
C          9.01228        0.56772       -3.23653
O          7.87373        0.50878       -3.99363
P         10.47818        1.43314       -3.76890
C         11.32950        0.74445       -5.27992
C         12.59715        1.63663       -5.57101
C         13.55203        1.81817       -4.37733
C         13.38938        1.13045       -6.79192
C         11.70793       -0.71968       -4.96363
O         10.51039       -1.45059       -4.71989
C         10.31337        0.80676       -6.44173
C         10.10410        3.20906       -3.90259
C          9.32133        3.80608       -2.70384
C         10.01824        3.61573       -1.33649
C         11.44299        4.16742       -1.21454
C          9.01875        5.28001       -3.01565
H          0.63495       -3.25140       -0.88134
H          0.93504       -3.25121       -2.62919
H          0.53584       -1.73526       -1.79552
H          3.09771       -3.39575       -1.30791
H          2.70186       -1.88432       -0.49136
H          2.73040       -0.68312       -2.71371
H          3.14237       -2.20190       -3.51988
H          5.29315       -2.32791       -2.16208
H          4.87900       -0.77046       -1.39320
H         11.28621        1.20185       -2.63719
H         12.20305        2.63049       -5.84347
H         13.96890        0.86404       -4.02626
H         13.09301        2.32034       -3.51305
H         14.39989        2.44558       -4.68037
H         13.91176        0.18706       -6.58179
H         14.15579        1.87264       -7.04967
H         12.76373        0.98816       -7.68069
H         12.39111       -0.77082       -4.09755
H         12.24589       -1.11898       -5.84076
H         10.73895       -2.35303       -4.44855
H         10.10248        1.84277       -6.73914
H          9.37160        0.30270       -6.19818
H         10.73164        0.29111       -7.31543
H          9.52938        3.32837       -4.83444
H         11.06610        3.72335       -4.05341
H          8.35665        3.27386       -2.64736
H         10.00989        2.54771       -1.06222
H          9.37910        4.10121       -0.58355
H         12.15815        3.66182       -1.88244
H         11.81731        4.02660       -0.19260
H         11.49493        5.24239       -1.43355
H          9.93730        5.87419       -3.12371
H          8.42740        5.72420       -2.20416
H          8.44224        5.38452       -3.94507
