38

F          2.16200       -1.41247       -3.12297
C          2.19954       -1.98471       -1.83160
C          2.91081       -1.05618       -0.86262
C          4.40741       -0.83773       -1.13361
N          4.98819       -0.04023       -0.05770
C          6.44527       -0.01919       -0.07959
C          6.89977        0.67834       -1.36466
N          6.23968        0.04569       -2.55767
C          4.72470       -0.13007       -2.46844
C          4.03750        1.22815       -2.67097
C          4.57744        2.01099       -3.85439
O          5.70592        1.84265       -4.33328
O          3.71839        2.90965       -4.29941
C          4.15669        3.75699       -5.40762
C          6.95013        0.72052        1.17991
C          8.46790        0.62401        1.47757
F          8.84190       -0.68834        1.47663
F          9.16786        1.26920        0.49212
F          6.62090        2.04755        1.12805
F          6.30835        0.18091        2.27120
H          2.70603       -2.95803       -1.92626
H          1.15942       -2.15091       -1.51960
H          2.82156       -1.51324        0.13718
H          2.38365       -0.09236       -0.80528
H          4.88528       -1.84461       -1.19917
H          4.64791       -0.34472        0.85426
H          6.89012       -1.03796       -0.04065
H          7.98242        0.61199       -1.51903
H          6.61115        1.73576       -1.34987
H          6.67094       -0.86428       -2.75722
H          6.34697        0.69781       -3.40639
H          4.47015       -0.79065       -3.30796
H          4.12929        1.85401       -1.76822
H          2.96528        1.06036       -2.82808
H          3.34351        4.47307       -5.54710
H          4.29850        3.14427       -6.30531
H          5.09137        4.26492       -5.14464
H          8.70683        1.07786        2.45180
