94

C         -0.03711       -1.50115      -11.79210
C          1.48517       -1.43834      -11.94101
C          2.12729       -0.29204      -11.15136
C          3.65304       -0.24149      -11.27545
C          4.30072        0.91410      -10.50580
C          5.82977        0.91584      -10.58958
C          6.49561        2.08999       -9.86533
C          8.02540        2.02302       -9.89446
C          8.71527        3.20658       -9.20935
C         10.24118        3.07306       -9.17944
C         10.95182        4.26428       -8.52907
C         12.46592        4.06374       -8.43016
C         13.19380        5.26483       -7.78621
C         14.66508        4.99649       -7.65249
C         15.58889        5.24259       -8.67428
C         16.93210        4.92884       -8.50066
C         17.42697        4.33869       -7.33213
N         16.48684        4.06621       -6.36041
C         15.17381        4.39696       -6.51115
C         16.77582        3.32011       -5.12189
C         16.00166        1.98651       -5.07220
O         15.10318        1.68498       -5.82928
O         16.46912        1.27844       -4.04585
C         15.80676       -0.00992       -3.75693
C         16.52093       -1.16162       -4.44165
C         15.91388       -2.51235       -4.03996
C         16.63375       -3.70686       -4.67772
C         16.03488       -5.05299       -4.26524
C         18.92518        4.09426       -7.12680
C         19.31024        2.58910       -6.91596
C         18.49576        1.48096       -7.61826
C         18.54611        1.52866       -9.15331
C         18.99890        0.11897       -7.11550
C         19.70572        4.62395       -8.38862
O         21.10146        4.39992       -8.28178
C         19.43281        4.95651       -5.93910
H         -0.46562       -2.33034      -12.37176
H         -0.51146       -0.57192      -12.14164
H         -0.32971       -1.64457      -10.74115
H          1.74830       -1.33486      -13.00746
H          1.92727       -2.39496      -11.61397
H          1.85084       -0.38402      -10.08593
H          1.69937        0.66805      -11.49058
H          3.93095       -0.16795      -12.34181
H          4.07748       -1.19751      -10.92046
H          3.99401        0.86616       -9.44596
H          3.90990        1.87323      -10.88900
H          6.13737        0.92370      -11.65024
H          6.21485       -0.03217      -10.17353
H          6.15213        2.11727       -8.81614
H          6.15867        3.03917      -10.31770
H          8.36868        1.96014      -10.94211
H          8.35393        1.08412       -9.41444
H          8.33848        3.30439       -8.17615
H          8.43625        4.14288       -9.72313
H         10.61816        2.94175      -10.20870
H         10.51209        2.14922       -8.63885
H         10.54044        4.43152       -7.51848
H         10.73561        5.18260       -9.10145
H         12.88854        3.88500       -9.43364
H         12.68533        3.15626       -7.84276
H         12.76075        5.47017       -6.79520
H         13.03826        6.16810       -8.39516
H         15.25883        5.69734       -9.61017
H         17.62461        5.15689       -9.30422
H         14.53213        4.15095       -5.66843
H         16.47573        3.93165       -4.25973
H         17.83985        3.11495       -5.03369
H         14.75746        0.07009       -4.06898
H         15.86451       -0.08515       -2.66404
H         17.58805       -1.13690       -4.16832
H         16.46161       -1.03322       -5.53380
H         14.84735       -2.53651       -4.32184
H         15.94187       -2.61671       -2.94162
H         17.70075       -3.67561       -4.40027
H         16.60196       -3.60588       -5.77552
H         16.09321       -5.20065       -3.17673
H         16.56561       -5.88864       -4.74098
H         14.97565       -5.12573       -4.55328
H         19.32770        2.36616       -5.83728
H         20.36472        2.51284       -7.22520
H         17.43400        1.56706       -7.32632
H         19.58418        1.53757       -9.51822
H         18.02910        2.40282       -9.57191
H         18.05512        0.64136       -9.57528
H         20.04043       -0.05358       -7.42560
H         18.39134       -0.70043       -7.52277
H         18.96265        0.05313       -6.01921
H         19.49548        5.69678       -8.53116
H         19.38325        4.08477       -9.28896
H         21.53307        5.19299       -7.93148
H         18.99519        4.69256       -4.97022
H         19.23373        6.02323       -6.11571
H         20.51731        4.81750       -5.84217
