54

C          3.22858       -0.84654       -1.62414
C          4.66631       -0.35205       -1.79821
C          4.98172        0.88983       -0.95538
C          6.43626        1.35506       -1.09735
C          6.76188        2.67149       -0.37084
C          6.60006        2.56953        1.15448
C          7.04446        3.77040        2.00380
C          7.11088        3.44856        3.51476
C          5.90324        2.71873        4.11555
C          6.01317        2.57002        5.63729
C          4.72762        2.00261        6.25366
N          3.59613        2.90990        6.01035
N          8.50622        4.16490        1.60486
C          8.46396        5.66470        1.26487
O          7.33388        6.11745        1.90918
C          6.31653        5.11352        1.65342
C          5.04551        5.47337        2.39864
C          4.42210        6.78362        1.89523
C          3.11569        7.11974        2.61657
H          3.03212       -1.72763       -2.24882
H          2.50034       -0.07176       -1.90569
H          3.02590       -1.12955       -0.58040
H          4.85526       -0.12415       -2.86045
H          5.37007       -1.15857       -1.53201
H          4.75238        0.66622        0.10105
H          4.30368        1.71161       -1.24778
H          6.66910        1.48851       -2.16547
H          7.11498        0.56303       -0.73627
H          6.12291        3.47278       -0.77442
H          7.79883        2.95018       -0.64877
H          7.12763        1.67051        1.51706
H          5.54083        2.39943        1.39468
H          7.28927        4.38841        4.06443
H          8.00380        2.81644        3.68267
H          5.80793        1.71784        3.66603
H          4.96641        3.25016        3.90257
H          6.22175        3.55488        6.09151
H          6.86229        1.92043        5.90560
H          4.90766        1.78907        7.32323
H          4.49162        1.03741        5.77830
H          3.62054        3.69370        6.66451
H          2.70999        2.43252        6.17249
H          8.81786        3.60641        0.79898
H          9.13058        3.97778        2.39791
H          8.40359        5.72545        0.16332
H          9.35862        6.17149        1.64473
H          6.10930        5.12060        0.56620
H          5.24883        5.54375        3.47818
H          4.32568        4.64970        2.26576
H          4.23937        6.70438        0.81031
H          5.14401        7.60327        2.02776
H          2.35948        6.33533        2.46803
H          2.69431        8.06253        2.24520
H          3.27226        7.23039        3.69919
