85

C          0.40161       -0.02925       -0.01772
C          1.89302        0.31328       -0.00393
C          2.42352        0.80077       -1.35728
C          3.91317        1.15397       -1.32903
C          4.48193        1.61928       -2.67420
C          5.96551        1.98842       -2.58401
C          6.61822        2.38390       -3.91323
C          8.10015        2.72977       -3.73396
C          8.86491        3.01175       -5.03441
C         10.34669        3.18056       -4.74577
O         11.09074        3.35493       -5.97281
C         12.44869        2.98506       -5.81480
C         13.14612        3.12818       -7.18138
C         13.40135        4.58572       -7.65402
C         12.39921        4.86059       -8.79807
N         11.88562        3.49563       -9.07255
C         12.25685        2.56202       -8.25206
C         11.79080        1.15709       -8.39584
C         12.91493        0.09860       -8.26136
O         12.76514       -0.58559       -7.00277
C         13.75845       -0.45678       -6.07093
O         14.70161        0.29962       -6.18119
C         13.47277       -1.35854       -4.89527
S         12.31795       -0.53715       -3.73083
C         12.83718       -0.96983       -9.35181
O         14.00331       -1.79086       -9.24074
C         13.82669       -3.06198       -8.73657
O         12.75402       -3.51558       -8.40818
C         15.14805       -3.78700       -8.67250
S         15.62286       -4.43427      -10.31978
C         12.97819        5.47920      -10.07419
C         13.45429        6.92579       -9.88345
C         14.00259        7.50174      -11.19679
C         14.47824        8.94809      -11.03437
S         15.07868        9.56208      -12.63164
O         16.28215        8.84772      -12.98994
O         13.96499        9.67034      -13.54522
Cl        15.63535       11.49356      -12.09295
H          0.06031       -0.37767        0.96674
H          0.17911       -0.82305       -0.74621
H         -0.20702        0.84657       -0.28808
H          2.47161       -0.57140        0.31239
H          2.08641        1.08637        0.75918
H          1.84274        1.68236       -1.68145
H          2.24315        0.02351       -2.12100
H          4.48702        0.27652       -0.98141
H          4.08383        1.94071       -0.57293
H          3.90538        2.48606       -3.04149
H          4.34419        0.82220       -3.42604
H          6.52142        1.13411       -2.15829
H          6.08833        2.81374       -1.86086
H          6.08249        3.24010       -4.35780
H          6.51856        1.55239       -4.63291
H          8.59267        1.89071       -3.21118
H          8.19118        3.59812       -3.05942
H          8.46852        3.91039       -5.53377
H          8.73386        2.16935       -5.73444
H         10.72545        2.27919       -4.23103
H         10.53198        4.04964       -4.08814
H         12.52378        1.94463       -5.45317
H         12.97670        3.62876       -5.08507
H         14.07622        2.54161       -7.11531
H         14.42974        4.68551       -8.02607
H         13.27256        5.29932       -6.83337
H         11.53931        5.45411       -8.44630
H         11.24725        3.31760       -9.85057
H         11.24722        1.03766       -9.34487
H         11.05997        0.97368       -7.58967
H         13.91249        0.56109       -8.28334
H         14.40571       -1.61515       -4.38418
H         12.95935       -2.26938       -5.22613
H         13.23764        0.28722       -3.17524
H         12.86503       -0.50432      -10.34800
H         11.92946       -1.58215       -9.24120
H         15.07974       -4.60069       -7.94317
H         15.95386       -3.09830       -8.39001
H         14.66232       -5.38713      -10.37516
H         12.21072        5.45996      -10.86672
H         13.81455        4.85177      -10.42621
H         14.23382        6.96932       -9.10542
H         12.61666        7.54556       -9.52275
H         13.22203        7.46205      -11.97210
H         14.84010        6.88237      -11.55312
H         15.32301        9.04569      -10.33925
H         13.67220        9.63176      -10.73568
