54

C          4.85660       -2.09836       -2.86580
C          4.29500       -1.54402       -1.55719
N          2.86787       -1.17008       -1.65553
C          1.95139       -2.10276       -1.30067
O          2.24309       -3.26198       -0.97592
C          0.46384       -1.70826       -1.26558
S         -0.45673       -2.73234       -2.48125
C         -0.47385       -4.38497       -1.70904
C         -0.40488       -5.43042       -2.86347
N          0.84168       -5.41162       -3.62016
N         -0.65904       -6.71571       -2.22887
N         -1.45513       -5.06786       -3.81909
C         -2.16559       -2.15263       -2.22803
C         -2.43276       -0.77244       -2.84339
O         -3.79872       -0.53754       -2.63712
Si        -4.56279        0.98457       -2.71203
C         -4.38046        1.68241       -4.44577
C         -6.33591        0.59205       -2.27906
C         -3.75486        2.12313       -1.45057
C          2.57626        0.19582       -2.12115
C          2.52310        1.22852       -0.99528
H          5.92471       -2.32142       -2.74337
H          4.75905       -1.37925       -3.69100
H          4.34580       -3.02822       -3.14664
H          4.84136       -0.64153       -1.24827
H          4.38430       -2.28782       -0.75660
H          0.24145       -0.67054       -1.53604
H          0.07119       -1.91926       -0.26226
H         -1.40037       -4.47631       -1.12642
H          0.41260       -4.41551       -1.05981
H          1.65195       -5.55923       -3.01832
H          0.97571       -4.54094       -4.13784
H          0.00091       -6.90574       -1.47107
H         -0.54103       -7.45925       -2.92126
H         -1.24528       -5.49518       -4.72421
H         -2.34680       -5.45281       -3.49936
H         -2.38320       -2.16330       -1.15105
H         -2.77264       -2.91153       -2.73891
H         -2.17451       -0.78623       -3.91979
H         -1.80175       -0.00291       -2.35629
H         -4.81813        1.00954       -5.19641
H         -3.32989        1.86047       -4.71763
H         -4.90145        2.64818       -4.52311
H         -6.77130       -0.11412       -2.99938
H         -6.95023        1.50360       -2.29057
H         -6.41236        0.14806       -1.27715
H         -2.69718        2.32358       -1.67667
H         -3.81867        1.70842       -0.43462
H         -4.26619        3.09682       -1.44154
H          1.64618        0.19708       -2.70623
H          3.36979        0.45531       -2.83634
H          1.69909        1.02632       -0.29655
H          2.37952        2.23420       -1.41302
H          3.45752        1.23543       -0.41868
