76

C         13.72317       -1.70511       -9.17932
C         13.10870       -1.51269       -7.79183
C         13.59920       -2.54158       -6.76919
C         12.97917       -2.37481       -5.37929
C         13.48255       -3.40092       -4.36041
C         12.83962       -3.26349       -2.97757
C         13.37500       -4.27049       -1.95574
C         12.68492       -4.18991       -0.59100
C         13.26662       -5.16275        0.43870
C         12.52235       -5.16032        1.77739
C         13.16730       -6.07428        2.82423
C         12.34420       -6.20201        4.11216
C         12.99947       -7.07914        5.19239
C         14.16421       -6.36167        5.88581
N         14.88043       -7.18789        6.88265
C         14.31681       -7.46666        8.06648
N         14.75204       -8.33627        8.99887
N         13.94184       -8.36898       10.10861
C         12.99631       -7.49888        9.86515
N         13.19315       -6.91875        8.60967
C         11.83958       -7.20184       10.75225
C         10.51350       -7.79097       10.21621
C          9.33408       -7.62201       11.18390
C          8.88115       -6.16910       11.35804
S          7.44656       -6.10921       12.45200
O          6.30860       -6.69923       11.77792
O          7.87017       -6.54518       13.75778
O          7.20425       -4.50376       12.52843
C         16.19604       -7.75169        6.59112
O         16.14224       -9.15748        6.73699
C         17.38905       -9.78370        6.38183
H         13.35280       -0.95655       -9.89305
H         13.48413       -2.69930       -9.58514
H         14.81927       -1.61809       -9.14448
H         12.00937       -1.56883       -7.86285
H         13.33645       -0.49820       -7.42348
H         14.69904       -2.47803       -6.68944
H         13.38265       -3.55738       -7.14455
H         11.88022       -2.44881       -5.45967
H         13.18701       -1.35691       -5.00515
H         14.57896       -3.31020       -4.26458
H         13.29643       -4.41878       -4.74610
H         11.74625       -3.38457       -3.07164
H         12.99939       -2.23907       -2.59815
H         14.46074       -4.11522       -1.82705
H         13.26139       -5.29271       -2.35758
H         11.60655       -4.39064       -0.71636
H         12.75866       -3.15964       -0.20097
H         14.33013       -4.91753        0.60842
H         13.25429       -6.18548        0.02274
H         11.47684       -5.47387        1.61324
H         12.47311       -4.13044        2.17238
H         14.18111       -5.69512        3.04443
H         13.30674       -7.08115        2.39367
H         11.36233       -6.63318        3.86415
H         12.13459       -5.19886        4.52491
H         13.36942       -8.01523        4.74513
H         12.24748       -7.37279        5.94309
H         13.81991       -5.43536        6.37733
H         14.91733       -6.04475        5.15414
H         15.47440       -9.03673        8.84212
H         12.62220       -6.19901        8.17956
H         11.75854       -6.11207       10.89291
H         12.07462       -7.63705       11.73338
H         10.66126       -8.86557       10.03302
H         10.26285       -7.33712        9.24225
H          9.59515       -8.04366       12.16638
H          8.48816       -8.21201       10.80217
H          8.56568       -5.71521       10.40772
H          9.63733       -5.52969       11.83472
H          6.33930       -4.32368       12.11183
H         16.95026       -7.32381        7.28351
H         16.45514       -7.46024        5.55975
H         17.25087      -10.85758        6.54193
H         18.21519       -9.41823        7.01382
H         17.62815       -9.59851        5.32241
