38

C          4.40527        2.09022       -0.07236
C          3.80141        0.70628        0.04539
O          4.49506       -0.18306       -0.85748
C          3.97908       -1.50180       -0.84979
C          4.68659       -2.27371       -1.96972
P          6.47191       -1.92057       -2.01903
C          7.22949       -2.22544       -0.38687
C          8.71084       -1.84843       -0.36581
C          9.15477       -0.44948       -0.26856
O          9.19531       -1.14691       -1.53322
C          7.30413       -2.91561       -3.29995
C          6.78137       -2.48423       -4.67292
O          5.96599       -1.58541       -4.80057
O          7.34148       -3.19969       -5.64149
C          6.93406       -2.88828       -7.03009
C          5.74134       -3.72626       -7.44082
H          3.87947        2.78163        0.59913
H          4.31409        2.47346       -1.09692
H          5.46687        2.08831        0.21016
H          2.73036        0.71691       -0.22392
H          3.88693        0.31612        1.07652
H          2.89063       -1.51047       -1.04241
H          4.14322       -1.98745        0.13229
H          4.31564       -1.97226       -2.95979
H          4.54522       -3.35888       -1.85858
H          6.64946       -0.57159       -2.36122
H          7.08661       -3.28974       -0.14930
H          6.64579       -1.64298        0.34138
H          9.38498       -2.63233       -0.00886
H         10.13396       -0.22518        0.16158
H          8.40864        0.34878       -0.20233
H          7.13308       -3.98843       -3.12749
H          8.38672       -2.73344       -3.22941
H          7.83007       -3.13054       -7.61262
H          6.72895       -1.81274       -7.08906
H          5.95077       -4.79821       -7.33259
H          5.51743       -3.53074       -8.49871
H          4.84841       -3.46901       -6.85702
