51

N          8.52678        2.83933       -1.91005
C          7.45345        2.38524       -1.02265
C          7.98922        1.35849       -0.02045
C          6.93605        0.92200        1.00054
C          7.48780       -0.06120        2.03673
C          6.43552       -0.41596        3.11774
C          7.01772       -1.24068        4.22787
C          7.73048       -0.57492        5.24664
C          8.31345       -1.26620        6.28417
N          8.19244       -2.61760        6.35420
C          7.51540       -3.29472        5.39825
C          6.93307       -2.65109        4.30457
C          6.25523       -3.49931        3.25732
C          7.13386       -4.64897        2.74397
O          8.00998       -5.19341        3.38816
O          6.76846       -4.98620        1.50107
C          7.46959       -6.12570        0.92519
C          8.77762       -3.34040        7.51572
C          7.92515       -3.14912        8.77328
C          8.56156       -3.82634        9.99035
S          7.58236       -3.40548       11.45141
O          7.77087       -1.99927       11.74304
O          6.27269       -3.97683       11.27342
O          8.34768       -4.26966       12.58301
H          8.22460        3.64047       -2.46391
H          8.78340        2.10715       -2.57363
H          6.57788        1.95425       -1.55079
H          7.08403        3.26453       -0.47078
H          8.85771        1.80074        0.49368
H          8.36680        0.47697       -0.56759
H          6.07369        0.46864        0.48271
H          6.54674        1.81219        1.52396
H          8.37216        0.37802        2.52683
H          7.83547       -0.98294        1.54208
H          5.57670       -0.91681        2.65197
H          6.05473        0.52220        3.55053
H          7.83014        0.51024        5.22227
H          8.87744       -0.78518        7.08161
H          7.47398       -4.37507        5.51340
H          5.91667       -2.90231        2.40532
H          5.35087       -3.97240        3.67752
H          7.06615       -6.22616       -0.08563
H          7.26886       -7.02587        1.51796
H          8.54801       -5.93071        0.90180
H          9.79537       -2.95091        7.65829
H          8.85823       -4.39710        7.23166
H          6.91737       -3.55750        8.60895
H          7.81255       -2.07344        8.97958
H          9.58365       -3.47198       10.18301
H          8.56204       -4.92230        9.91587
H          8.76961       -3.64171       13.20183
