123

C         -2.01749        8.43677      -14.72851
C         -0.71876        7.80737      -15.23966
C          0.40790        7.80530      -14.20018
C          1.71047        7.17645      -14.70497
C          2.84120        7.17820      -13.67073
C          4.13801        6.54249      -14.18222
C          5.27654        6.54036      -13.15704
C          6.57139        5.91500      -13.68572
C          7.72244        5.91638      -12.67461
C          9.01194        5.29446      -13.22066
C         10.17582        5.30115      -12.22496
C         11.46592        4.69722      -12.78915
C         12.64127        4.72553      -11.80759
C         13.93939        4.15433      -12.38675
C         15.11856        4.20166      -11.41026
C         16.43102        3.67956      -12.00296
C         17.60044        3.72486      -11.01193
C         18.92881        3.17786      -11.55327
C         19.55377        4.02724      -12.66667
C         20.90486        3.47410      -13.13244
C         21.57741        4.32371      -14.21545
C         22.82681        3.61782      -14.77740
N         23.34384        4.41298      -15.94999
C         23.62662        5.88433      -15.64821
C         22.38149        6.46828      -14.94901
N         21.87885        5.70124      -13.82282
C         22.46227        5.91611      -12.48756
C         22.59055        7.39132      -12.10130
C         21.26957        8.17008      -12.10502
C         21.46432        9.66905      -11.85592
C         20.15606       10.46565      -11.82093
C         20.37077       11.97617      -11.68210
C         19.07098       12.78509      -11.62440
C         19.29921       14.29803      -11.54220
C         18.00710       15.11756      -11.46946
C         18.24323       16.63107      -11.41503
C         16.95103       17.44756      -11.33643
C         24.95770        6.05472      -14.88884
C         26.06238        5.03315      -15.21167
O         25.91465        4.57197      -16.56330
C         27.02234        3.75805      -17.01920
C         26.70695        3.24336      -18.40726
H         -2.80272        8.42458      -15.49716
H         -1.86271        9.48424      -14.42887
H         -2.40409        7.89777      -13.85054
H         -0.37835        8.34519      -16.14098
H         -0.91404        6.77109      -15.56427
H          0.06854        7.26773      -13.29689
H          0.60457        8.84260      -13.87540
H          2.04592        7.71154      -15.61116
H          1.51300        6.13823      -15.02587
H          2.50652        6.64575      -12.76287
H          3.04378        8.21625      -13.35276
H          4.46948        7.07513      -15.09131
H          3.93350        5.50499      -14.50082
H          4.95222        5.99939      -12.25056
H          5.47778        7.57671      -12.83261
H          6.88858        6.45345      -14.59653
H          6.37010        4.87742      -14.00614
H          7.41138        5.37434      -11.76412
H          7.92505        6.95325      -12.35279
H          9.31491        5.83386      -14.13582
H          8.80951        4.25621      -13.53800
H          9.88216        4.75117      -11.31354
H         10.37182        6.33830      -11.89991
H         11.74802        5.24028      -13.70884
H         11.27567        3.65544      -13.10225
H         12.37055        4.16575      -10.89517
H         12.81722        5.76558      -11.48045
H         14.20290        4.71151      -13.30361
H         13.77069        3.11099      -12.70684
H         14.86913        3.61833      -10.50665
H         15.26466        5.24066      -11.06584
H         16.67113        4.26994      -12.90418
H         16.29020        2.64031      -12.34990
H         17.32594        3.14782      -10.11399
H         17.74939        4.76326      -10.66640
H         18.77833        2.14688      -11.91910
H         19.64973        3.10121      -10.72157
H         19.67028        5.06557      -12.31590
H         18.87602        4.07995      -13.53443
H         20.75471        2.46541      -13.55166
H         21.58262        3.33839      -12.27379
H         20.85475        4.40068      -15.05627
H         22.60789        2.60635      -15.14558
H         23.63074        3.55411      -14.03271
H         22.63803        4.37709      -16.69743
H         24.25030        4.05154      -16.34523
H         23.73270        6.33477      -16.64608
H         21.57231        6.53602      -15.70027
H         22.60295        7.49850      -14.64433
H         23.44745        5.41902      -12.35271
H         21.78766        5.43424      -11.76612
H         23.32854        7.90221      -12.74464
H         23.03258        7.41766      -11.09261
H         20.59959        7.74507      -11.33806
H         20.74742        8.02412      -13.06507
H         22.11837       10.08170      -12.64548
H         22.00970        9.81899      -10.90791
H         19.52983       10.10325      -10.98719
H         19.57951       10.26278      -12.74110
H         20.98321       12.33322      -12.52928
H         20.96658       12.17882      -10.77489
H         18.47398       12.45586      -10.75577
H         18.45846       12.55696      -12.51465
H         19.88729       14.62327      -12.41879
H         19.92455       14.52501      -10.66068
H         17.42651       14.80703      -10.58262
H         17.37262       14.87946      -12.34181
H         18.81994       16.93866      -12.30399
H         18.88164       16.86696      -10.54676
H         16.30483       17.25973      -12.20689
H         17.15734       18.52612      -11.30315
H         16.37204       17.19326      -10.43601
H         24.79288        6.03646      -13.80483
H         25.30447        7.06903      -15.13037
H         26.01501        4.16698      -14.52351
H         27.05366        5.49590      -15.07642
H         27.17909        2.92855      -16.30644
H         27.93097        4.38366      -17.01804
H         25.81923        2.59514      -18.40429
H         27.55049        2.64858      -18.78162
H         26.53860        4.07064      -19.10879
