46

C          6.25939        3.03946       -0.99983
C          5.63780        1.67574       -0.68869
C          6.63347        0.51624       -0.80823
C          6.01695       -0.84813       -0.48077
C          7.00931       -2.00864       -0.63651
C          6.36484       -3.34115       -0.28910
O          7.28885       -4.45964       -0.54727
C          8.08618       -4.83110        0.45347
O          8.10397       -4.34860        1.57426
C          9.01989       -5.97037        0.01635
C         10.42142       -5.50103       -0.21452
C         11.05488       -5.29132       -1.41434
N         12.33996       -4.88405       -1.11417
C         12.51038       -4.84024        0.21699
N         11.35098       -5.21143        0.78472
C         11.12126       -5.18245        2.23705
C         11.33598       -3.75725        2.84789
N         10.66776       -2.77953        1.99096
N         10.89100       -3.91382        4.23668
N         12.76692       -3.45088        2.81483
Br        13.65713       -4.46909       -2.35305
H          5.51858        3.84552       -0.91306
H          6.66474        3.07125       -2.02201
H          7.08368        3.27147       -0.30907
H          4.78853        1.49328       -1.36828
H          5.21276        1.68597        0.32927
H          7.49182        0.70031       -0.13780
H          7.04753        0.49492       -1.83164
H          5.14619       -1.02158       -1.13612
H          5.62425       -0.83403        0.55054
H          7.88389       -1.84188        0.01350
H          7.38107       -2.04715       -1.67313
H          5.50806       -3.56190       -0.93734
H          6.05415       -3.38892        0.76263
H          8.64689       -6.41609       -0.91252
H          8.99417       -6.74365        0.79772
H         10.70588       -5.41205       -2.43227
H         13.38356       -4.50342        0.76546
H         11.81144       -5.87855        2.72608
H         10.09287       -5.51244        2.41293
H          9.66399       -2.97599        1.96002
H         10.77833       -1.84130        2.38087
H          9.88097       -4.06272        4.29013
H         11.10559       -3.07388        4.77678
H         12.92935       -2.44931        2.71692
H         13.21790       -3.77463        3.67150
