89

C          0.89744       -0.77351       -1.08793
C          2.41747       -0.61395       -1.00041
C          2.88692        0.03206        0.30792
C          4.40676        0.19952        0.40354
C          4.86878        0.87754        1.69736
C          6.38588        1.07019        1.78554
C          6.83605        1.79039        3.06003
C          8.34804        2.02687        3.13718
C          8.76183        2.81259        4.38430
C         10.26187        3.12166        4.46938
C         10.56252        3.96631        5.69278
O         11.95719        4.28628        5.76437
C         12.23221        5.10085        6.88305
C         13.74367        5.33581        6.94492
C         14.53829        4.10201        7.40189
C         14.38678        3.89555        8.90960
C         14.79492        5.12133        9.72320
N         14.16981        6.45902        9.28152
C         14.17492        6.56365        7.74686
C         12.80833        6.77569        9.88305
C         11.76775        5.66411       10.03002
O         11.96246        4.62417       10.62511
O         10.60693        6.06433        9.49544
C          9.50276        5.08997        9.53306
C          8.48310        5.49805        8.48524
C          7.50251        4.36037        8.16860
C          6.51724        4.71416        7.04832
C          5.59477        3.55430        6.66772
C         15.11651        7.62676        9.74996
C         15.21611        7.86009       11.22831
C         14.45148        8.87978       11.82401
C         14.54277        9.13222       13.19292
C         15.40631        8.37053       13.98468
C         16.19140        7.37163       13.40064
C         16.10378        7.12217       12.03101
H          0.59509       -1.23991       -2.03553
H          0.38908        0.20008       -1.02032
H          0.51376       -1.40277       -0.27094
H          2.77414       -0.00834       -1.85089
H          2.89911       -1.60033       -1.11117
H          2.53052       -0.57226        1.16097
H          2.40446        1.01980        0.41785
H          4.76323        0.78708       -0.46101
H          4.89045       -0.78928        0.31480
H          4.52338        0.28678        2.56421
H          4.37325        1.86064        1.78735
H          6.73110        1.64162        0.90594
H          6.88622        0.08814        1.72182
H          6.50948        1.21220        3.94264
H          6.31514        2.76208        3.12989
H          8.67776        2.57454        2.23728
H          8.87790        1.05909        3.11470
H          8.45234        2.25481        5.28561
H          8.19608        3.76053        4.40875
H         10.59001        3.66349        3.56808
H         10.84599        2.18867        4.51195
H         10.26484        3.43119        6.61753
H          9.97642        4.90649        5.65582
H         11.86324        4.60041        7.79817
H         11.69384        6.06818        6.80255
H         14.03867        5.58353        5.91067
H         15.60079        4.23161        7.13776
H         14.18311        3.21853        6.85629
H         15.04354        3.08292        9.25418
H         13.36888        3.58650        9.16908
H         15.87573        5.28426        9.61282
H         14.56145        4.99939       10.78609
H         15.22109        6.78146        7.49251
H         13.57462        7.45033        7.50336
H         12.39539        7.61001        9.30607
H         13.00732        7.11926       10.90795
H          9.09590        5.07895       10.55429
H          9.93129        4.09848        9.32756
H          9.02161        5.77701        7.56634
H          7.93832        6.39604        8.81516
H          6.94349        4.07823        9.07703
H          8.07441        3.46283        7.87426
H          7.08662        5.03844        6.16082
H          5.91400        5.58455        7.35519
H          6.16823        2.68374        6.31813
H          4.90759        3.83980        5.86028
H          4.98475        3.22921        7.52299
H         14.72440        8.51793        9.24210
H         16.08896        7.37436        9.31042
H         13.79180        9.49380       11.20617
H         13.94783        9.92948       13.63870
H         15.48125        8.56702       15.05436
H         16.88449        6.79430       14.01259
H         16.74697        6.36166       11.58575
