67

S          2.34182        1.41240       -0.15472
C          3.67537        1.44720        1.10642
C          3.76381        0.09177        1.75395
O          3.00035       -0.30093        2.63115
O          4.75380       -0.65942        1.22518
C          5.01545       -1.97938        1.79425
C          4.41357       -3.08291        0.90994
C          2.99001       -3.47405        1.18110
N          2.10561       -2.74225        1.95078
C          0.91943       -3.36281        1.99253
N          1.00790       -4.48899        1.26974
C          2.29026       -4.57916        0.75712
C         -0.08867       -5.44900        1.02431
C          0.25185       -6.87756        1.46189
C         -0.86250       -7.83078        1.02073
S         -0.40325       -9.55877        1.31723
C         -1.96572      -10.23791        1.93627
S         -3.30285       -9.33571        2.30618
N         -1.89562      -11.59763        2.03559
C         -0.65402      -12.32184        1.89349
C         -0.46021      -13.15118        0.78222
C          0.72454      -13.87790        0.66500
C          1.70917      -13.78216        1.65402
C          1.50579      -12.96159        2.76692
C          0.32166      -12.23323        2.89450
C         -3.07761      -12.40113        2.25657
C         -3.18078      -13.16467        3.42139
C         -4.29387      -13.98827        3.60580
C         -5.29230      -14.04973        2.63072
C         -5.17636      -13.28731        1.46368
C         -4.06859      -12.46283        1.27098
C          6.53751       -2.08095        1.86916
O          6.80038       -3.29462        2.59395
C          8.12650       -3.51524        2.88943
O          9.01860       -2.81013        2.47860
C          8.28319       -4.69894        3.81120
S          8.11630       -4.15464        5.55384
H          3.08638        0.85060       -1.13639
H          3.35472        2.17761        1.85814
H          4.62304        1.76066        0.65817
H          4.60898       -2.00933        2.81533
H          5.03574       -3.98060        1.04012
H          4.52383       -2.77649       -0.14276
H          2.34415       -1.81261        2.38023
H          0.03652       -3.01303        2.51485
H          2.60257       -5.41051        0.13730
H         -0.31124       -5.41560       -0.05265
H         -0.97062       -5.06941        1.55658
H          0.38247       -6.92033        2.55340
H          1.21053       -7.18024        1.01148
H         -1.07817       -7.71256       -0.05215
H         -1.80646       -7.67522        1.57849
H         -1.23788      -13.22114        0.02150
H          0.87897      -14.52289       -0.20041
H          2.63167      -14.35599        1.56109
H          2.26494      -12.89869        3.54724
H          0.14324      -11.60001        3.76401
H         -2.39585      -13.11266        4.17611
H         -4.37965      -14.58233        4.51599
H         -6.15924      -14.69447        2.77684
H         -5.94992      -13.33822        0.69684
H         -3.96991      -11.86185        0.36705
H          6.95129       -1.21766        2.40872
H          6.99914       -2.11576        0.87016
H          9.25689       -5.17118        3.64634
H          7.48139       -5.43149        3.66051
H          9.25107       -3.41595        5.57853
