44

C          6.18737       -1.27253        1.07808
C          4.91554       -0.66756        0.52167
O          5.28069        0.46920       -0.29561
C          4.18725        1.02924       -0.96003
N          4.70002        2.09843       -1.81857
C          4.39384        3.39538       -1.64888
N          5.00944        4.12953       -2.58649
C          5.73798        3.24162       -3.36873
C          5.56690        1.95574       -2.90880
Si         6.45631        0.38480       -3.56003
C          5.32799       -1.11194       -3.43317
C          6.84845        0.76834       -5.35682
C          8.01597        0.17653       -2.54040
Si         4.94985        5.98821       -2.72593
C          3.15091        6.42475       -2.48107
C          6.06222        6.61714       -1.36646
C          5.58394        6.36424       -4.43913
H          5.94022       -2.11504        1.73743
H          6.74893       -0.53316        1.66417
H          6.83314       -1.64763        0.27303
H          4.24277       -0.32903        1.33042
H          4.35971       -1.39656       -0.09722
H          3.45541        1.48628       -0.26752
H          3.66163        0.28957       -1.59110
H          3.73858        3.77487       -0.87209
H          6.32776        3.58924       -4.20869
H          4.33718       -0.93208       -3.87167
H          5.20480       -1.45512       -2.39832
H          5.78629       -1.93881       -3.99493
H          5.94051        0.97310       -5.94030
H          7.34648       -0.10064       -5.81037
H          7.53194        1.62223       -5.46264
H          7.77848        0.08535       -1.47332
H          8.69235        1.03174       -2.67311
H          8.55442       -0.72895       -2.85448
H          2.78296        6.15372       -1.48148
H          2.51140        5.94276       -3.23310
H          3.02693        7.51259       -2.58373
H          5.70460        6.31620       -0.37241
H          6.08949        7.71638       -1.38996
H          7.09192        6.25436       -1.48841
H          4.99314        5.86740       -5.22035
H          6.64095        6.09222       -4.56317
H          5.50888        7.44829       -4.60839
