35

F          1.50901        0.44889        0.59326
C          2.85774        0.27115        0.58677
C          3.23497       -0.77379        1.67926
C          2.58681       -2.14251        1.44409
C          3.20990       -3.12817        0.65592
C          2.53656       -4.32729        0.47808
C          1.28914       -4.47586        1.08373
N          0.78417       -3.46712        1.81709
N          1.39591       -2.30677        2.01066
C         -0.55623       -3.56854        2.45193
C         -1.57414       -2.76366        1.63069
C         -3.03045       -2.97056        2.08335
C         -3.87773       -4.03490        1.28510
C         -3.46592       -5.55822        1.29709
C         -3.49364       -6.35436        2.65492
F         -4.63741       -6.16133        3.31300
F         -3.34131       -7.65877        2.38840
F         -2.45850       -5.96606        3.44612
F         -4.29338       -6.18836        0.44253
F         -2.17971       -5.65586        0.79991
F         -5.15775       -3.95130        1.70542
F         -3.81905       -3.65936       -0.02820
F         -3.09020       -3.27274        3.41927
F         -3.69516       -1.79459        1.90029
F          4.59280       -0.93292        1.65401
F          2.87410       -0.28519        2.88913
F          3.22373       -0.23208       -0.62965
H          3.36913        1.23011        0.76700
H          4.18890       -2.94299        0.21527
H          2.95097       -5.14354       -0.11194
H          0.67696       -5.37343        1.00390
H         -0.44931       -3.16384        3.46430
H         -0.79805       -4.63268        2.51427
H         -1.50109       -3.00719        0.56220
H         -1.36566       -1.69096        1.74241
