89

C         14.57603        7.75939        0.43679
C         13.87236        6.44018        0.76376
C         14.35529        5.79395        2.06761
C         13.64759        4.47342        2.38694
C         14.09540        3.82236        3.70000
C         13.35792        2.51437        4.00335
C         13.75145        1.86150        5.33293
C         12.98463        0.56529        5.61271
C         13.32128       -0.09569        6.95283
C         12.59570       -1.42750        7.17125
C         12.90181       -2.07764        8.52574
C         12.41138       -3.52625        8.68903
C         12.93871       -4.53343        7.64505
C         14.45216       -4.47795        7.38540
C         15.32016       -4.81133        8.61290
C         16.75137       -4.29013        8.48938
O         17.63639       -4.79655        9.47556
C         17.64736       -3.98739       10.64795
C         18.32018       -4.75944       11.76237
C         17.47309       -5.95833       12.20384
O         18.14615       -6.56986       13.28014
Si        17.56917       -7.92127       14.11630
C         17.27223       -9.32812       12.90453
C         18.93962       -8.31126       15.32612
C         15.96613       -7.46879       14.98931
N         18.28312       -2.68316       10.29521
C         17.63963       -2.07391        9.27492
N         17.76249       -0.76751        9.00337
N         16.76705       -2.81090        8.56120
C         19.61843       -2.36273       10.85609
C         20.39801       -1.16063       10.30675
O         19.73969        0.09379       10.59585
C         21.82054       -1.16613       10.85722
H         14.20150        8.19347       -0.50036
H         15.66157        7.61806        0.32625
H         14.41989        8.50372        1.23196
H         14.01708        5.72917       -0.06734
H         12.78405        6.60931        0.82767
H         14.20513        6.50165        2.90222
H         15.44513        5.62359        2.00943
H         13.80838        3.76430        1.55574
H         12.55777        4.64724        2.42514
H         13.93826        4.53202        4.53138
H         15.18324        3.63363        3.66500
H         13.53216        1.79837        3.18088
H         12.27070        2.70598        4.00714
H         13.57893        2.57636        6.15662
H         14.83762        1.65507        5.33294
H         13.17407       -0.15317        4.79571
H         11.90119        0.77251        5.58168
H         13.08796        0.59843        7.77877
H         14.41589       -0.26796        7.00810
H         12.86369       -2.11007        6.34727
H         11.50737       -1.27397        7.08227
H         12.46394       -1.46480        9.32985
H         13.99272       -2.03362        8.70928
H         11.31097       -3.54285        8.65000
H         12.66879       -3.86985        9.70426
H         12.42688       -4.37152        6.68468
H         12.65827       -5.55068        7.96122
H         14.69732       -3.47334        6.99649
H         14.70899       -5.16881        6.56815
H         15.38668       -5.90104        8.74341
H         14.87285       -4.40471        9.53315
H         17.19039       -4.60038        7.52589
H         16.60979       -3.74151       10.93883
H         18.46439       -4.11169       12.63878
H         19.30676       -5.12537       11.44360
H         17.34137       -6.65597       11.35757
H         16.46493       -5.60530       12.50351
H         18.18681       -9.57242       12.34627
H         16.48081       -9.08916       12.17977
H         16.95712      -10.23387       13.44237
H         19.87575       -8.54140       14.79939
H         18.67753       -9.18095       15.94500
H         19.12473       -7.46255       15.99864
H         15.17179       -7.19681       14.27938
H         16.11414       -6.62596       15.67881
H         15.59701       -8.32119       15.57767
H         18.30648       -0.16331        9.63799
H         17.44972       -0.40581        8.11091
H         16.04632       -2.32083        8.03772
H         20.24655       -3.25259       10.70157
H         19.50551       -2.22994       11.94353
H         20.43548       -1.20214        9.20782
H         19.88821        0.33145       11.52653
H         21.82531       -1.15010       11.95824
H         22.35739       -0.28118       10.49509
H         22.37164       -2.05768       10.53121
