49

C          5.95403       -2.87732        0.87917
C          5.70940       -1.50088        0.25571
C          5.82017       -0.36027        1.27925
C          5.57129        0.99767        0.63889
O          5.59666        2.07409        1.64270
C          6.79137        2.61393        1.90147
O          7.83673        2.33220        1.34661
C          6.75513        3.71807        2.94125
N          7.84668        4.50756        2.81419
C          8.14483        5.56275        3.58924
C          7.24816        5.87957        4.60976
C          6.11364        5.09504        4.78113
C          5.82226        3.98719        3.95814
C          4.64013        3.09463        4.26646
C          5.13067        1.92440        5.17201
O          6.20005        1.17189        4.61433
C          3.46278        3.80932        4.94410
C          9.40096        6.32458        3.26735
C         10.61937        5.43172        2.88202
N         10.25224        4.62201        1.69914
N         11.70107        6.34461        2.50911
N         10.83116        4.47531        3.97169
H          5.86663       -3.67145        0.12639
H          5.22598       -3.09382        1.67471
H          6.95982       -2.94556        1.31831
H          4.71147       -1.47685       -0.21182
H          6.43396       -1.32831       -0.55684
H          6.82158       -0.37249        1.73875
H          5.07957       -0.52222        2.08265
H          4.56345        1.06998        0.21209
H          6.31780        1.22766       -0.13205
H          8.62416        4.26616        2.10745
H          7.44786        6.72680        5.26481
H          5.42676        5.34039        5.59079
H          4.28433        2.65832        3.32594
H          4.26469        1.28437        5.40924
H          5.50805        2.33727        6.12088
H          5.83338        0.51307        4.00428
H          3.68652        4.11658        5.97610
H          2.60242        3.13000        4.99508
H          3.14867        4.69791        4.38072
H          9.66104        6.95600        4.12883
H          9.21376        7.01109        2.42685
H         10.45724        5.14485        0.84584
H         10.76554        3.74002        1.67141
H         11.94550        6.97732        3.27345
H         12.54605        5.82239        2.26746
H         11.64932        3.88951        3.78912
H         11.01383        4.96337        4.84924
