58

C          0.40572       -0.44906        1.64038
C          1.73888        0.24750        1.35627
C          2.88496       -0.28623        2.22886
C          4.19846        0.41226        1.91113
O          5.28424       -0.04684        2.79099
C          5.96588       -1.13059        2.40680
O          5.77916       -1.73527        1.35686
C          6.97926       -1.53956        3.46778
C          8.32339       -2.13111        2.98499
C          8.14954       -3.33665        1.99908
N          8.85780       -3.06977        0.67506
C          8.57166       -4.13531       -0.29853
C          9.52173       -4.94941       -0.73780
C          8.55952       -1.69596        0.09697
C          8.85459       -0.59606        1.15949
N          9.23698       -1.10994        2.46904
C         10.67017       -1.37177        2.65169
C         11.12738       -1.31713        4.11418
C         12.65188       -1.45217        4.18963
S         13.16366       -1.48031        5.92941
C         14.91379       -1.69909        5.77682
S         15.75264       -1.65575        4.36608
N         15.51449       -1.88843        7.02675
C         14.90001       -2.24614        8.23584
N         15.76676       -2.36373        9.20319
C         17.00326       -2.06945        8.63670
C         16.88044       -1.78592        7.30685
H         -0.39433       -0.04368        1.00746
H          0.09991       -0.31727        2.68810
H          0.46887       -1.52934        1.44469
H          1.63039        1.33251        1.51858
H          2.00090        0.12208        0.29258
H          2.99837       -1.36993        2.06647
H          2.64632       -0.14015        3.29432
H          4.14588        1.48950        2.11190
H          4.50475        0.24563        0.86970
H          6.47239       -2.29672        4.08994
H          7.18878       -0.68648        4.12393
H          8.79665       -2.53360        3.88909
H          7.09955       -3.51762        1.74899
H          8.60222       -4.25633        2.38707
H          9.86914       -3.09362        0.87329
H          7.52370       -4.16521       -0.59474
H         10.55991       -4.87827       -0.40688
H          9.28224       -5.73025       -1.45756
H          7.50295       -1.71078       -0.19173
H          9.18564       -1.60440       -0.79811
H          7.95801        0.03185        1.25829
H          9.65733        0.05897        0.80081
H         11.20564       -0.59604        2.08484
H         11.01791       -2.34766        2.22451
H         10.65785       -2.12244        4.70158
H         10.79476       -0.36358        4.55039
H         13.16088       -0.61220        3.69624
H         13.00900       -2.37870        3.71600
H         13.83305       -2.43678        8.30468
H         17.91000       -2.08273        9.23329
H         17.58849       -1.51720        6.53375
