80

C          0.10464       -2.74303        2.06422
C          1.62563       -2.61338        1.96118
C          2.35060       -2.91554        3.27684
C          3.87386       -2.79669        3.17502
C          4.60933       -3.10409        4.48325
C          6.13256       -3.00837        4.35555
C          6.88538       -3.31216        5.65495
C          8.40797       -3.27187        5.48883
C          9.17630       -3.57643        6.77943
C         10.69616       -3.63257        6.56784
C         11.43775       -3.98062        7.85164
O         12.85745       -4.21823        7.64769
C         13.65991       -3.06263        7.56712
C         15.02876       -3.49442        7.10170
N         15.14845       -4.79439        6.75466
C         16.29074       -5.33560        6.28481
C         17.44357       -4.57281        6.13981
C         17.36817       -3.19522        6.48941
C         16.14628       -2.68698        6.96859
C         18.51299       -2.22689        6.34125
C         19.08232       -1.69342        7.67372
O         19.86539       -2.68493        8.30292
Si        20.82616       -2.35144        9.67352
C         22.08463       -3.73331        9.72047
C         21.64981       -0.67487        9.46158
C         19.73459       -2.36959       11.20228
C         18.68636       -5.24762        5.59959
C         19.67619       -5.78655        6.66754
C         19.24229       -7.00668        7.47797
C         18.92481       -8.32678        6.69700
Br        20.36997       -8.88365        5.51101
F         18.62702       -9.32204        7.54730
F         17.80168       -8.12397        5.92980
Br        20.64291       -7.42440        8.79101
F         18.07923       -6.71891        8.18210
H         -0.38454       -2.53634        1.10264
H         -0.30514       -2.03964        2.80417
H         -0.18788       -3.75641        2.37617
H          1.88791       -1.59471        1.62885
H          2.00162       -3.29315        1.17789
H          2.08494       -3.93376        3.61179
H          1.98088       -2.23294        4.06226
H          4.13823       -1.77762        2.84114
H          4.23845       -3.47745        2.38530
H          4.33561       -4.11705        4.82660
H          4.26177       -2.41235        5.27027
H          6.40667       -1.99802        4.00393
H          6.47290       -3.70510        3.56909
H          6.58751       -4.30894        6.02483
H          6.57891       -2.59361        6.43479
H          8.70981       -2.28050        5.10869
H          8.70440       -3.99872        4.71267
H          8.83342       -4.54288        7.18733
H          8.93206       -2.81831        7.54300
H         11.04465       -2.66504        6.16843
H         10.93192       -4.39647        5.80896
H         11.06553       -4.92673        8.26808
H         11.31219       -3.20151        8.62327
H         13.74638       -2.55438        8.54765
H         13.25941       -2.32329        6.84659
H         14.29064       -5.34947        6.87270
H         16.25205       -6.39458        6.03889
H         16.06273       -1.63048        7.22794
H         18.14276       -1.35618        5.77616
H         19.34092       -2.65812        5.76688
H         18.24888       -1.36510        8.32604
H         19.68577       -0.79894        7.43917
H         22.71915       -3.73017        8.82318
H         21.60440       -4.71834        9.79502
H         22.74318       -3.61738       10.59354
H         22.22681       -0.61638        8.52748
H         22.35334       -0.50769       10.29021
H         20.93371        0.15867        9.47703
H         19.23931       -3.34387       11.32134
H         18.95866       -1.59118       11.17298
H         20.33838       -2.19281       12.10466
H         19.25188       -4.52702        4.99442
H         18.39015       -6.04949        4.91200
H         19.89966       -4.99011        7.39234
H         20.61785       -6.04413        6.16621
