68

C          1.07254       -0.30523        0.85756
C          2.58665       -0.09053        0.79300
C          2.99267        1.38653        0.84524
C          4.50551        1.61452        0.76287
C          4.90277        3.09397        0.80140
C          6.41273        3.32852        0.69422
C          6.79870        4.81244        0.69751
C          8.31345        5.03530        0.60178
C          8.68020        6.50763        0.55257
O         10.12728        6.60840        0.52506
C         10.60616        7.90609        0.46679
N         12.10042        7.78078        0.54283
C         12.65786        7.08698       -0.67436
C         14.02961        6.46847       -0.36502
C         14.43875        5.34260       -1.32957
C         14.74611        5.83688       -2.78117
Br        15.23192        4.42527       -4.01575
F         13.62056        6.45428       -3.25982
F         15.71981        6.77808       -2.73574
Br        16.03056        4.47208       -0.58756
F         13.42481        4.42018       -1.40929
C         12.78161        9.09256        0.85786
C         12.75558        9.39832        2.36326
C         13.26361        8.22410        3.20563
O         13.01073        7.04967        2.85364
N         13.93935        8.54450        4.32747
C         14.46411        7.71149        5.35721
C         14.48797        6.31060        5.28625
C         15.03612        5.59266        6.35135
C         15.55380        6.24511        7.47232
C         15.52599        7.64162        7.53344
C         14.98449        8.37401        6.48031
H          0.81513       -1.37250        0.82219
H          0.56332        0.18651        0.01522
H          0.64848        0.10782        1.78490
H          2.98413       -0.54281       -0.13139
H          3.07173       -0.62952        1.62444
H          2.60412        1.83834        1.77512
H          2.49806        1.92788        0.01925
H          4.89277        1.15752       -0.16479
H          5.00207        1.08017        1.59196
H          4.52721        3.54924        1.73462
H          4.39306        3.62716       -0.02030
H          6.79189        2.85705       -0.22909
H          6.92425        2.81630        1.52767
H          6.41253        5.28874        1.61520
H          6.29520        5.31849       -0.14435
H          8.71126        4.53983       -0.29832
H          8.81726        4.57526        1.46679
H          8.30276        7.04612        1.44146
H          8.26664        6.99522       -0.34893
H         10.27587        8.52103        1.32536
H         10.35069        8.43178       -0.47560
H         12.32990        7.19570        1.42369
H         12.68849        7.81860       -1.49143
H         11.93619        6.30188       -0.92597
H         14.00211        6.00877        0.63268
H         14.83671        7.21291       -0.35815
H         12.30145        9.88992        0.27482
H         13.81779        9.00173        0.51126
H         11.73170        9.63039        2.69833
H         13.34852       10.30786        2.53162
H         14.06879        9.53891        4.49710
H         14.08671        5.79370        4.42007
H         15.05677        4.50398        6.29702
H         15.97781        5.66965        8.29488
H         15.92665        8.16475        8.40163
H         14.96134        9.46557        6.53028
