44

N          2.61226       -4.12748        5.53262
C          2.45149       -4.71195        4.19073
C          2.76103       -3.66107        3.11666
C          4.23197       -3.22654        3.14332
C          4.46542       -1.89788        2.41961
C          5.90305       -1.34840        2.49920
O          6.40058       -1.27618        3.84804
C          5.66652       -0.40706        4.66447
N          5.66358        0.94046        4.06375
C          5.90244        1.10787        2.75450
N          6.10655        2.33247        2.24240
C          6.17095        3.58262        3.01015
C          6.48048        4.75062        2.08129
N          5.93085        0.03194        1.94593
C          6.90152       -2.23761        1.74261
C          8.34812       -1.75442        1.67455
C          9.35869       -2.84255        1.36669
Br         9.49323       -4.07018        2.89729
Br         8.58492       -0.41069        0.17948
H          2.70908       -4.85870        6.23634
H          1.77824       -3.59671        5.78864
H          1.44600       -5.13256        4.00905
H          3.16136       -5.54896        4.10033
H          2.11139       -2.78455        3.29107
H          2.48746       -4.05126        2.12362
H          4.85197       -4.02304        2.70236
H          4.53818       -3.13785        4.19659
H          3.77680       -1.13528        2.81959
H          4.20965       -1.97437        1.35054
H          6.18548       -0.36037        5.62990
H          4.63019       -0.75135        4.81862
H          5.63188        1.75338        4.66836
H          6.22713        2.39617        1.23650
H          6.95659        3.49501        3.77951
H          5.20654        3.75342        3.51810
H          7.44833        4.61605        1.57908
H          6.53040        5.68091        2.65917
H          5.69744        4.87351        1.32006
H          6.45416        0.14427        1.07125
H          6.51743       -2.44828        0.73411
H          6.91322       -3.19475        2.28590
H          8.63842       -1.19281        2.56927
H         10.36259       -2.43411        1.22485
H          9.07401       -3.45111        0.50144
