53

C          0.62519       -0.28902        0.26105
O          2.02305       -0.55551        0.31459
C          2.66334        0.10285        1.38855
C          4.14241       -0.24210        1.28869
O          4.81683        0.39148        2.38412
C          6.21441        0.28654        2.30666
C          6.77115        1.08454        3.48839
C          8.28933        1.08158        3.70403
O          9.04381        1.46705        2.58628
C          9.47152        0.33536        1.82063
C          9.79819       -0.71689        2.88004
N          8.75898       -0.42729        3.93554
C          8.67269        1.93706        4.91961
C         10.15467        1.96087        5.31953
O         10.85003        2.97092        4.56275
C         11.80324        2.57841        3.67323
O         12.08077        1.41739        3.43359
C         12.43780        3.78344        3.02477
S         11.36642        4.43378        1.68636
C         10.34183        2.31789        6.79337
O         11.72431        2.13588        7.11447
C         12.41289        3.24833        7.55082
O         11.92333        4.35002        7.64683
C         13.83108        2.87846        7.90675
S         13.90100        2.09912        9.56362
H          0.23146       -0.83723       -0.60212
H          0.42634        0.78952        0.12788
H          0.11318       -0.63596        1.17645
H          2.26113       -0.23048        2.36592
H          2.52930        1.20092        1.32744
H          4.54903        0.12016        0.32708
H          4.28198       -1.33814        1.33234
H          6.58842        0.68941        1.34542
H          6.52062       -0.78902        2.34316
H          6.27269        0.74156        4.41024
H          6.47827        2.13623        3.35799
H         10.36360        0.63685        1.26158
H          8.69194       -0.00176        1.11830
H         10.78407       -0.52456        3.31747
H          9.70671       -1.75497        2.54280
H          9.13689       -0.54778        4.88159
H          7.94146       -1.04237        3.83579
H          8.06039        1.61391        5.77634
H          8.35943        2.96613        4.69146
H         10.66605        1.00102        5.13129
H         13.42505        3.52013        2.63338
H         12.52828        4.60281        3.74829
H         11.69109        3.48910        0.77247
H          9.76000        1.63578        7.43274
H         10.04388        3.35824        6.99201
H         14.46161        3.77272        7.87316
H         14.22074        2.12036        7.21617
H         13.60061        3.22082       10.25977
