80

C          0.74666        1.05436        0.03767
C          2.18601        0.64100        0.35458
C          2.77100       -0.34378       -0.66329
C          4.22369       -0.73983       -0.38078
C          4.80900       -1.69152       -1.42822
C          6.28647       -2.03328       -1.20892
C          6.87224       -2.90231       -2.32592
C          8.37458       -3.17696       -2.19614
C          8.94931       -3.88314       -3.42765
C         10.46612       -4.10210       -3.40247
C         10.99741       -4.58413       -4.75596
C         12.51136       -4.81351       -4.82151
C         12.98286       -5.07816       -6.25460
C         14.47642       -5.38483       -6.40658
C         14.89755       -5.45200       -7.87902
C         16.35915       -5.90071       -8.07487
N         16.92469       -5.92584       -9.42988
C         17.32752       -4.67217      -10.02755
C         16.22804       -3.96525      -10.83923
N         15.66259       -4.91236      -11.87388
C         15.22686       -6.22520      -11.26013
C         16.38512       -6.84487      -10.44149
N         15.95374       -8.14043       -9.99651
C         14.56428       -4.25190      -12.71637
C         14.15011       -5.10769      -13.87707
C         14.95719       -5.17411      -15.02460
C         14.59331       -5.99455      -16.09294
C         13.41468       -6.74404      -16.02700
C         12.59897       -6.67160      -14.89455
C         12.96632       -5.85803      -13.82166
H          0.35759        1.76569        0.77934
H          0.07340        0.18407        0.02775
H          0.67796        1.53452       -0.95013
H          2.22968        0.19327        1.36176
H          2.82576        1.53908        0.39656
H          2.70688        0.09969       -1.67323
H          2.14238       -1.25156       -0.69502
H          4.29259       -1.20244        0.61940
H          4.84472        0.17246       -0.33393
H          4.69295       -1.23770       -2.42888
H          4.21538       -2.62238       -1.45204
H          6.41230       -2.53859       -0.23546
H          6.86714       -1.09619       -1.13990
H          6.68700       -2.40349       -3.29430
H          6.32529       -3.86028       -2.37481
H          8.57180       -3.77459       -1.28942
H          8.90588       -2.21981       -2.04983
H          8.69559       -3.28396       -4.32081
H          8.44205       -4.85383       -3.56780
H         10.73138       -4.82373       -2.61095
H         10.96819       -3.15632       -3.13294
H         10.71760       -3.83961       -5.52295
H         10.47850       -5.51577       -5.04286
H         12.79238       -5.65774       -4.16905
H         13.03878       -3.93006       -4.42178
H         12.73288       -4.19610       -6.87154
H         12.40085       -5.91484       -6.68041
H         14.71422       -6.33869       -5.90570
H         15.07387       -4.61331       -5.89172
H         14.73707       -4.45815       -8.33091
H         14.21434       -6.14179       -8.40609
H         16.48067       -6.90759       -7.64628
H         17.02112       -5.25054       -7.48177
H         18.19004       -4.85218      -10.69951
H         17.67880       -3.98077       -9.24951
H         16.61745       -3.09199      -11.38096
H         15.38582       -3.65122      -10.21059
H         16.42615       -5.14317      -12.52959
H         14.93787       -6.89004      -12.08136
H         14.34929       -6.01065      -10.63625
H         17.21323       -7.01545      -11.16072
H         15.21586       -8.10240       -9.29438
H         16.72542       -8.69383       -9.62821
H         14.98735       -3.29132      -13.04202
H         13.73413       -4.05384      -12.02637
H         15.86291       -4.56548      -15.09762
H         15.21982       -6.03795      -16.98399
H         13.12557       -7.37749      -16.86588
H         11.67347       -7.24561      -14.84835
H         12.32453       -5.79746      -12.94022
