67

N          2.30518       -0.70165        0.53197
C          2.62601       -1.15194       -0.82917
C          3.17001        0.00823       -1.67241
C          4.47167        0.59026       -1.11046
C          4.97654        1.79423       -1.91461
C          6.31604        2.30436       -1.39610
N          6.88680        3.38140       -2.30417
C          6.29441        4.74839       -2.05052
C          6.20300        5.54417       -3.35992
O          5.99306        6.93142       -3.09006
C          7.14530        7.63929       -2.78660
O          8.22979        7.09571       -2.72992
C          6.83946        9.08191       -2.50497
C          6.49529        9.30264       -1.01240
C          6.22137       10.77478       -0.70007
C          8.41031        3.41618       -2.32185
C          8.99705        2.21973       -3.06806
C          8.45947        2.02756       -4.49331
C          9.03490        0.79186       -5.19696
C          8.40696        0.53738       -6.57118
C          8.90772       -0.74313       -7.24753
C          8.24546       -1.01242       -8.60303
C          8.71777       -2.30856       -9.27103
C          8.04714       -2.57186      -10.62162
H          2.19592       -1.49819        1.15893
H          1.41362       -0.20402        0.54386
H          1.77270       -1.60915       -1.36423
H          3.39818       -1.93384       -0.74990
H          2.40414        0.80215       -1.72767
H          3.32465       -0.34357       -2.70592
H          5.24779       -0.19455       -1.10472
H          4.30646        0.87238       -0.05940
H          4.21884        2.59477       -1.89514
H          5.09773        1.49960       -2.97369
H          7.05129        1.49065       -1.37295
H          6.25300        2.73550       -0.38763
H          6.61310        3.09831       -3.25946
H          6.94586        5.25407       -1.32778
H          5.30189        4.61311       -1.60523
H          5.33454        5.22415       -3.95133
H          7.12055        5.41937       -3.95588
H          6.00190        9.41148       -3.13560
H          7.73288        9.66263       -2.77155
H          7.33036        8.93496       -0.39607
H          5.61372        8.69507       -0.75346
H          7.10043       11.39948       -0.91332
H          5.96856       10.90695        0.35996
H          5.38223       11.16223       -1.29511
H          8.73028        3.45592       -1.27190
H          8.68872        4.36732       -2.79629
H          8.85731        1.29334       -2.48832
H         10.08544        2.38063       -3.10140
H          8.65827        2.93086       -5.09551
H          7.35697        1.90143       -4.48457
H          8.87838       -0.09174       -4.55404
H         10.12717        0.90582       -5.29703
H          8.59961        1.40175       -7.23007
H          7.30868        0.47972       -6.46120
H          8.72807       -1.60184       -6.57688
H         10.00213       -0.68556       -7.37799
H          8.43802       -0.16164       -9.28016
H          7.14915       -1.05045       -8.47188
H          8.52553       -3.15654       -8.59195
H          9.81217       -2.27050       -9.40316
H          6.95495       -2.65410      -10.51699
H          8.40737       -3.50584      -11.07325
H          8.25021       -1.75909      -11.33464
