60

C          1.26951       -1.64400       -0.07878
C          2.23845       -0.45959       -0.06034
C          3.13489       -0.43672        1.18163
C          4.13944        0.72045        1.19896
C          5.00551        0.71497        2.46290
C          6.07567        1.78960        2.46511
O          6.88095        1.63890        3.65341
C          7.86614        2.64920        3.77433
C          8.79715        2.35288        4.95302
N          9.80318        1.34549        4.61177
C          9.39350       -0.04026        4.78187
C          8.91910       -0.36083        6.19798
N          7.74384        0.55044        6.57670
C          8.14560        2.09353        6.34457
C          7.06260        3.01101        6.85152
C          5.91217        3.36110        6.12799
C          4.99313        4.23177        6.71400
N          5.12953        4.75404        7.94241
C          6.22925        4.42073        8.62961
C          7.21592        3.56452        8.13083
C          6.49633        0.01802        6.06563
N          6.35281       -1.02962        5.32729
N          4.98705       -1.26665        5.26974
C          4.41310       -0.33393        5.99488
O          5.34473        0.52655        6.56922
S          2.72121       -0.07936        6.19917
C          2.67430        1.14366        7.57442
C          1.21087        1.47957        7.85054
H          0.64750       -1.63978       -0.98414
H          0.59254       -1.62164        0.78835
H          1.80880       -2.60259       -0.05107
H          1.67054        0.48442       -0.11720
H          2.87112       -0.48595       -0.96359
H          3.68493       -1.39109        1.25299
H          2.50420       -0.38625        2.08719
H          3.60175        1.68061        1.11544
H          4.78630        0.65508        0.30737
H          5.49287       -0.26605        2.57173
H          4.36114        0.84671        3.34744
H          5.62960        2.80318        2.45353
H          6.72979        1.70535        1.57822
H          7.39617        3.64366        3.90301
H          8.50014        2.69527        2.87203
H          9.34577        3.29514        5.11812
H         10.69281        1.53539        5.07176
H         10.24432       -0.69760        4.55684
H          8.59860       -0.28102        4.06341
H          9.69845       -0.14812        6.94243
H          8.56444       -1.39209        6.30401
H          7.65185        0.51675        7.60355
H          8.97660        2.14770        7.06527
H          5.71489        2.94014        5.14421
H          4.09380        4.52494        6.16475
H          6.33068        4.86013        9.62546
H          8.09918        3.34674        8.73647
H          3.24029        2.03218        7.26980
H          3.15692        0.68996        8.44982
H          0.72069        1.91833        6.97117
H          1.16015        2.21550        8.66353
H          0.64063        0.59432        8.16123
