51

C          7.00349       -1.19864        4.70048
C          7.40611       -0.70943        3.30769
C          7.26569       -1.80148        2.24076
C          7.64480       -1.31621        0.85253
O          7.51486       -2.41788       -0.06817
C          7.81104       -2.07509       -1.39858
C          7.63768       -3.29432       -2.26529
C          7.75066       -3.26492       -3.64764
C          7.56189       -4.45519       -4.38454
C          7.73502       -4.51049       -5.86893
C          9.24652       -4.64037       -6.22888
C          9.47687       -4.66094       -7.75817
N          9.42990       -3.28091       -8.25873
O          9.98239       -3.57046       -5.66409
N          7.28616       -5.61835       -3.78136
N          7.18781       -5.62919       -2.44730
C          7.34445       -4.53735       -1.68506
Si         6.79936       -7.36937       -1.79222
C          6.79112       -7.20531        0.06897
C          5.13019       -7.76034       -2.52462
C          8.19623       -8.41863       -2.44329
H          7.12327       -0.40605        5.45029
H          7.62108       -2.05193        5.01673
H          5.95229       -1.52086        4.72100
H          8.44796       -0.34983        3.32879
H          6.78685        0.15900        3.02850
H          6.22698       -2.16968        2.21838
H          7.90336       -2.66116        2.50457
H          8.68675       -0.94462        0.82994
H          6.98321       -0.49084        0.52758
H          8.85213       -1.70381       -1.50569
H          7.14760       -1.26765       -1.77220
H          7.98188       -2.34117       -4.17856
H          7.33909       -3.59013       -6.32431
H          7.18477       -5.37391       -6.26673
H          9.62049       -5.58094       -5.79339
H          8.76176       -5.34097       -8.24918
H         10.48566       -5.05716       -7.93373
H          8.51656       -3.03029       -8.63344
H         10.11243       -3.12257       -8.99635
H         10.00357       -2.90822       -6.39947
H          7.23180       -4.65240       -0.60908
H          6.00932       -6.52803        0.43913
H          7.76189       -6.88450        0.47153
H          6.58121       -8.19825        0.49506
H          4.35065       -7.07932       -2.15698
H          4.83818       -8.78320       -2.24488
H          5.15840       -7.70562       -3.62066
H          9.17133       -8.07697       -2.06960
H          8.21840       -8.41314       -3.54030
H          8.05788       -9.45787       -2.11092
