44

C          4.15892        3.30280        1.89705
C          5.39379        2.43586        1.64023
C          5.10328        1.25785        0.70217
C          6.30903        0.38358        0.39095
O          6.89622       -0.18023        1.62013
C          6.34177       -1.30113        2.09397
O          5.43673       -1.92765        1.58142
C          6.97209       -1.74168        3.40372
C          6.32252       -2.82197        4.01482
C          6.77379       -3.34877        5.21699
C          6.11474       -4.47237        5.96822
C          7.08164       -5.49237        6.57348
O          7.90190       -4.79165        7.53270
N          7.88129       -2.77826        5.75918
C          8.54482       -1.74427        5.20635
C          8.11602       -1.17020        4.01013
C          8.91777       -0.00881        3.46964
O         10.00120        0.22909        4.33822
C         10.84360        1.31248        3.89701
C         11.95683        1.49602        4.90753
H          4.38788        4.13104        2.58024
H          3.34463        2.71577        2.34656
H          3.77513        3.73861        0.96361
H          5.77773        2.05361        2.60088
H          6.20171        3.05321        1.21254
H          4.73657        1.63302       -0.26845
H          4.29215        0.63226        1.10731
H          7.13732        0.96262       -0.03664
H          6.05110       -0.44993       -0.27393
H          5.44965       -3.24380        3.51703
H          5.41843       -4.98793        5.29411
H          5.50641       -4.04019        6.78193
H          7.70758       -5.95168        5.78962
H          6.50193       -6.28546        7.06911
H          8.49682       -5.41825        7.97429
H          8.22757       -3.23056        6.62684
H          9.42563       -1.37712        5.72784
H          8.26490        0.88075        3.38086
H          9.26345       -0.24409        2.44462
H         10.23301        2.22933        3.80288
H         11.24645        1.07033        2.89626
H         11.55419        1.75156        5.89646
H         12.61833        2.31232        4.58864
H         12.56178        0.58421        4.99755
