49

C          0.78440        0.43699       -0.46927
C          2.31038        0.42592       -0.35096
C          2.82096        0.88278        1.02075
C          4.34807        0.85436        1.13936
C          4.87933        1.33435        2.49470
C          6.40827        1.29128        2.58680
C          6.97058        1.78393        3.92522
C          8.50297        1.77922        3.96012
C          9.10000        2.27112        5.28447
C         10.63296        2.32205        5.24605
C         11.30303        2.96517        6.47708
P         11.00459        2.11993        8.05773
C         11.47315        0.36085        7.95920
C         11.27669       -0.35819        9.29624
O          9.94526       -0.06961        9.72032
C         11.84142        2.96097        9.39395
C         11.18875        3.35456       10.49433
H          0.45639        0.11175       -1.46594
H          0.37702        1.44471       -0.29889
H          0.32065       -0.23500        0.26811
H          2.74537        1.07318       -1.13131
H          2.68853       -0.58968       -0.55771
H          2.37949        0.24405        1.80618
H          2.45567        1.90514        1.22329
H          4.78574        1.47662        0.33896
H          4.70750       -0.17269        0.95126
H          4.44346        0.71784        3.30028
H          4.53041        2.36533        2.67982
H          6.83619        1.89926        1.77074
H          6.75469        0.25885        2.40563
H          6.57744        1.15646        4.74428
H          6.60458        2.80656        4.12226
H          8.88479        2.41242        3.14092
H          8.87201        0.76018        3.75107
H          8.75056        1.61093        6.09979
H          8.70583        3.27611        5.51527
H         10.95280        2.91890        4.37778
H         11.04616        1.31476        5.07653
H         10.95433        3.99949        6.63043
H         12.39803        3.01040        6.36087
H          9.62938        2.17615        8.36012
H         12.51912        0.30460        7.62310
H         10.83830       -0.08360        7.17716
H         12.01910       -0.00447       10.03348
H         11.43385       -1.43815        9.14192
H          9.73386       -0.59935       10.50501
H         12.91131        3.14214        9.26117
H         10.12148        3.17454       10.63725
H         11.71021        3.87623       11.29838
