55

C          1.62936       -0.25954        0.42595
C          2.71466        0.21048        0.68593
C          4.03071        0.80368        0.89355
C          4.37336        1.85134       -0.18788
C          3.51544        3.10772       -0.12838
C          3.83502        4.07444       -1.28313
C          5.26338        4.66505       -1.25568
C          5.79225        5.17821        0.08522
O          7.24071        5.26989        0.01969
C          7.91650        4.09570        0.11167
O          7.37478        3.02201        0.33546
C          9.39181        4.29791       -0.13014
C         10.25610        3.08334        0.21131
C         11.73702        3.32339       -0.08803
C          3.56649        3.32746       -2.60961
C          4.37327        2.02033       -2.78952
N          4.18860        1.17361       -1.53418
C          5.84934        2.17258       -3.18196
C          6.16146        3.12682       -4.16395
C          7.46844        3.37141       -4.57714
C          8.51437        2.64968       -4.00330
C          8.23925        1.65873       -3.06358
C          6.92026        1.39502       -2.67812
O          6.61434        0.35906       -1.81222
C          7.66961       -0.24870       -1.04001
H          0.66610       -0.69601        0.25328
H          4.79945        0.01337        0.91172
H          4.08165        1.29954        1.87511
H          5.44043        2.10392       -0.10684
H          3.67091        3.57946        0.85115
H          2.44823        2.83257       -0.16605
H          3.10731        4.89918       -1.22715
H          5.32557        5.46974       -2.00303
H          5.97307        3.90059       -1.58899
H          5.52953        4.51945        0.92347
H          5.45952        6.19672        0.31658
H          9.71393        5.19424        0.42242
H          9.49753        4.56492       -1.19673
H          9.89475        2.21377       -0.35907
H         10.12058        2.82634        1.27335
H         11.90354        3.53241       -1.15533
H         12.34114        2.44585        0.17719
H         12.12990        4.17844        0.48072
H          3.75042        3.98063       -3.47061
H          2.49661        3.06732       -2.65767
H          3.88107        1.42331       -3.57536
H          4.91109        0.42349       -1.58262
H          3.24574        0.74999       -1.53179
H          5.35965        3.71317       -4.61168
H          7.66493        4.12640       -5.33717
H          9.54668        2.83693       -4.29904
H          9.05584        1.07563       -2.64356
H          7.16951       -0.96300       -0.37747
H          8.36873       -0.79314       -1.68949
H          8.19106        0.51363       -0.44471
