66

C          2.49484       -0.09614       -0.27932
C          1.16651        0.28271        0.32250
C          0.72487       -0.30105        1.52315
C         -0.51013        0.04285        2.07171
C         -1.32179        0.99169        1.44326
C         -0.90740        1.59512        0.24773
C          0.32943        1.21710       -0.30225
C         -1.78817        2.62647       -0.42830
C         -1.43297        4.10952       -0.16914
S         -1.39054        4.47150        1.65231
C          0.31445        4.44773        1.66647
N          0.86117        4.44423        0.47055
C         -0.03406        4.56208       -0.68815
C         -0.01638        5.95795       -1.28922
C          0.21668        7.11094       -0.53255
C          0.15381        8.35344       -1.17144
N         -0.11877        8.50531       -2.47366
C         -0.33683        7.39473       -3.19166
C         -0.29377        6.10592       -2.65275
C          1.13196        4.38420        2.91051
C          1.32447        2.90367        3.33349
C          2.53403        2.67832        4.25323
C          3.84094        2.10567        3.57663
C          4.58867        2.91560        2.44191
C          5.27879        4.31721        2.69673
C          6.38422        4.52511        3.81016
C          7.73454        3.70060        3.80019
C          8.74961        3.78931        2.58889
C          9.33208        5.19429        2.18138
F          9.78969        5.85673        3.25518
F         10.34351        4.99843        1.32140
F          8.39167        5.94184        1.57081
F          9.79760        3.01013        2.94965
F          8.16443        3.24538        1.48862
F          8.39225        4.09021        4.91819
F          7.41529        2.38488        3.92519
F          6.69990        5.84442        3.75827
F          5.79622        4.27738        5.00700
F          5.79220        4.68844        1.49934
F          4.28349        5.20585        3.00736
F          5.50950        2.08776        1.91260
F          3.64760        3.16762        1.45255
F          4.73097        1.81176        4.54639
F          3.46759        0.93616        2.96998
F          2.85814        3.81371        4.94518
F          2.19479        1.72598        5.17446
H          2.60383       -1.18738       -0.34618
H          3.32841        0.26970        0.33870
H          2.61565        0.31807       -1.28823
H          1.35039       -1.04448        2.02034
H         -0.84934       -0.43752        2.99025
H         -2.29261        1.24571        1.87288
H          0.64322        1.62876       -1.26619
H         -2.83462        2.47404       -0.12654
H         -1.76561        2.49710       -1.52376
H         -2.20605        4.76106       -0.59573
H          1.87506        4.42710        0.35671
H          0.30248        3.84574       -1.45137
H          0.44722        7.06787        0.53266
H          0.33283        9.27135       -0.60511
H         -0.54914        7.54010       -4.25390
H         -0.46939        5.23897       -3.29321
H          0.63325        4.94310        3.71274
H          2.09402        4.87455        2.72313
H          1.41712        2.24605        2.46098
H          0.44334        2.55853        3.88797
