57

C          5.87277       -3.91168        2.57069
C          5.60082       -3.80200        1.06859
C          6.57959       -2.86286        0.35335
C          6.35808       -2.74992       -1.16087
N          5.04681       -2.18234       -1.52327
C          4.07395       -3.01211       -1.97946
O          4.21462       -4.24224       -2.07012
C          2.73039       -2.39541       -2.38835
C          1.87707       -3.46731       -3.06582
O          0.58978       -2.93062       -3.48646
C         -0.37130       -3.34469       -2.57058
N          0.01822       -4.81516       -2.30358
C          1.52338       -4.67561       -2.16235
C         -0.42527       -5.82574       -3.33747
C         -0.14147       -7.27446       -2.91531
C         -0.80021       -7.66516       -1.57130
C         -2.33319       -7.68884       -1.54563
C         -0.55422       -8.19623       -4.07407
C         -1.75475       -3.09985       -3.15427
C         -2.96290       -3.66803       -2.45413
C         -3.21164       -4.05220       -1.19760
Br        -1.99100       -4.02097        0.26877
Br        -4.45795       -3.82263       -3.63949
C          4.90759       -0.73128       -1.44940
H          5.15739       -4.58681        3.05964
H          5.79628       -2.93228        3.06602
H          6.88189       -4.30167        2.76742
H          4.56916       -3.44453        0.90900
H          5.64932       -4.79835        0.60095
H          7.61202       -3.21884        0.50319
H          6.54167       -1.86230        0.81858
H          6.41500       -3.73965       -1.63026
H          7.13133       -2.11116       -1.61457
H          2.86068       -1.55661       -3.08696
H          2.21088       -1.99159       -1.50225
H          2.37297       -3.80519       -3.98421
H         -0.25572       -2.86763       -1.58123
H         -0.39228       -5.08229       -1.39179
H          2.02245       -5.59735       -2.46264
H          1.74322       -4.48884       -1.10520
H          0.08551       -5.57292       -4.27564
H         -1.50344       -5.67711       -3.48011
H          0.94781       -7.38873       -2.78430
H         -0.42853       -7.00771       -0.76343
H         -0.41869       -8.66146       -1.30166
H         -2.77996       -6.72920       -1.84184
H         -2.69156       -7.91236       -0.53280
H         -2.73966       -8.46054       -2.21200
H         -1.61771       -8.08823       -4.32856
H         -0.38060       -9.24606       -3.80502
H          0.02992       -7.98432       -4.97973
H         -1.75204       -3.44583       -4.19706
H         -1.86819       -2.00388       -3.21537
H         -4.18185       -4.42579       -0.88157
H          5.54185       -0.35213       -0.63936
H          3.87821       -0.43460       -1.22113
H          5.22088       -0.24397       -2.38686
