57

C         10.65304        4.07379        3.25739
C          9.86124        3.91381        1.95715
C         10.00866        2.51956        1.33617
C          9.21771        2.34953        0.03196
C          9.37425        0.94503       -0.52805
O          8.53569        0.74697       -1.72084
C          9.10867        0.95479       -2.91110
O         10.25534        1.30708       -3.11120
C          8.11359        0.63796       -4.03067
C          8.67532        1.07577       -5.38172
C          8.47371        2.56775       -5.65969
C          8.98209        3.03816       -7.03451
C         10.52594        3.06458       -7.11360
C         11.11856        3.44912       -8.47593
C         10.70376        4.82838       -9.00195
C         11.44475        5.22237      -10.28738
N         12.89406        5.28125      -10.06206
C          8.31012        2.17490       -8.11688
C          8.54184        0.68956       -7.89566
N          8.03046        0.25154       -6.52025
C          8.21058       -1.19839       -6.35529
C          7.18660       -2.04175       -6.35546
H         10.52289        5.07763        3.68314
H         11.72966        3.92074        3.09178
H         10.32789        3.34697        4.01640
H         10.18934        4.67312        1.22735
H          8.79335        4.11483        2.14611
H          9.67864        1.76118        2.06734
H         11.07685        2.31635        1.14769
H          9.56577        3.08123       -0.71485
H          8.14903        2.54976        0.21109
H          9.00794        0.18586        0.17470
H         10.41511        0.72583       -0.79945
H          7.14982        1.12088       -3.80972
H          7.93745       -0.44772       -3.99347
H          9.74364        0.81716       -5.42249
H          8.99359        3.10651       -4.85425
H          7.40062        2.80651       -5.55102
H          8.62215        4.06897       -7.17270
H         10.94816        2.09082       -6.81221
H         10.88029        3.77540       -6.34934
H         10.87268        2.68236       -9.23302
H         12.21492        3.43157       -8.39804
H         10.89864        5.58953       -8.22507
H          9.62056        4.87518       -9.20526
H         11.01052        6.16435      -10.67373
H         11.26020        4.45581      -11.05783
H         13.14542        6.13063       -9.55380
H         13.39736        5.31661      -10.94789
H          8.68900        2.41950       -9.11888
H          7.22621        2.37847       -8.14484
H          9.60794        0.42503       -7.91628
H          8.01474        0.06199       -8.62462
H          7.01812        0.44793       -6.50090
H          9.25785       -1.48717       -6.26539
H          6.14997       -1.71155       -6.44885
H          7.36080       -3.11212       -6.25920
