99

C          1.02947       -1.06401        0.77800
C          2.52861       -0.97229        0.48482
C          2.86595       -1.12155       -1.00361
C          4.36911       -1.03727       -1.29010
C          4.70057       -1.18768       -2.76577
O          6.12141       -1.09771       -2.92568
C          6.53418       -1.20891       -4.26923
C          8.06405       -1.07199       -4.27305
C          8.63931       -0.91888       -5.65665
N          8.64167       -2.09065       -6.30054
N          9.15751       -2.14124       -7.52391
C          9.73373       -1.12256       -8.19496
C          9.71491        0.10727       -7.54877
C          9.14767        0.28160       -6.27549
C          9.19285        1.67751       -5.64340
C          7.86198        2.12281       -4.96679
C          6.70765        2.63091       -5.86267
C          6.27085        1.66867       -6.97727
C          5.51577        2.98402       -4.95904
C         10.37366        1.70877       -4.58518
O         10.18136        0.99815       -3.37851
C          9.61872        2.75690       -6.66475
C         10.33300       -1.42383       -9.53926
C         10.76835       -0.20508      -10.35835
C         11.37627       -0.59876      -11.70900
C         11.77069        0.61566      -12.55459
C         12.42209        0.24946      -13.89172
C         12.70945        1.46984      -14.77189
C         13.39101        1.12753      -16.10015
C         13.54586        2.33669      -17.02757
C         14.26111        2.01971      -18.34421
C         14.31593        3.21355      -19.30281
C         15.03595        2.90793      -20.61896
C         15.00973        4.09843      -21.58573
N         15.70669        3.83967      -22.84019
C         17.01619        4.16495      -23.10947
C         17.34116        3.66992      -24.36636
C         16.18983        3.01733      -24.86992
C         15.19627        3.13393      -23.90634
H          0.82288       -0.94453        1.85008
H          0.61953       -2.03656        0.46775
H          0.46796       -0.28345        0.24330
H          3.06529       -1.74778        1.05680
H          2.91809       -0.00627        0.84822
H          2.33402       -0.34132       -1.57613
H          2.47298       -2.08654       -1.36887
H          4.90419       -1.82022       -0.72912
H          4.76626       -0.07177       -0.93641
H          4.20939       -0.39352       -3.36435
H          4.34295       -2.16195       -3.15338
H          6.06403       -0.41736       -4.88591
H          6.23684       -2.18181       -4.70804
H          8.49643       -1.98337       -3.83744
H          8.36536       -0.24475       -3.62942
H          9.11659       -3.07223       -7.94191
H         10.15035        0.95152       -8.07346
H          8.12527        2.95171       -4.28712
H          7.47387        1.33046       -4.31640
H          7.03876        3.56499       -6.34701
H          5.91393        0.70926       -6.57483
H          7.07503        1.44899       -7.69320
H          5.44195        2.10703       -7.54964
H          5.12581        2.08828       -4.45052
H          4.69361        3.42129       -5.54119
H          5.79785        3.70923       -4.18282
H         10.57678        2.77396       -4.38531
H         11.26942        1.28082       -5.06073
H          9.74219        1.57495       -2.73460
H          8.99363        2.76252       -7.56659
H         10.66867        2.65052       -6.97425
H          9.52571        3.74517       -6.19729
H          9.60568       -2.02013      -10.11830
H         11.20029       -2.08992       -9.37880
H         11.51022        0.38062       -9.79059
H          9.90216        0.45714      -10.52451
H         10.65573       -1.21790      -12.27087
H         12.26053       -1.23746      -11.54013
H         12.46006        1.25594      -11.97680
H         10.87324        1.23052      -12.74348
H         11.76511       -0.44720      -14.44106
H         13.35942       -0.30273      -13.70421
H         13.33706        2.18650      -14.21355
H         11.76036        1.99642      -14.97571
H         12.80928        0.34546      -16.61877
H         14.38199        0.68399      -15.90069
H         14.09260        3.13737      -16.49902
H         12.54596        2.75065      -17.24770
H         13.75194        1.17701      -18.84369
H         15.28607        1.67002      -18.13148
H         14.81256        4.06284      -18.80105
H         13.28623        3.55087      -19.51708
H         14.57043        2.03763      -21.10951
H         16.08423        2.62908      -20.42421
H         15.47736        4.97988      -21.12251
H         13.97069        4.37673      -21.82155
H         17.60562        4.72900      -22.39347
H         18.29901        3.78391      -24.86322
H         16.08325        2.52693      -25.83209
H         14.17105        2.77715      -23.89690
