50

O          1.89638       -0.78130       -0.19811
C          3.22733       -0.25025       -0.17235
C          3.18894        1.28346       -0.09803
C          2.55980        1.78817        1.22028
S          2.77866        3.63178        1.36320
C          1.14236        3.86375        1.66016
N          0.36291        2.81649        1.69097
C          1.03358        1.50798        1.41179
C          0.73689        0.43251        2.46264
C          1.16613        0.83495        3.87499
O          1.63787        1.96722        4.07893
N          0.98712       -0.06703        4.87231
C          0.42265       -1.40984        4.68296
C          1.48388       -2.48691        4.44490
C          1.36061        0.32834        6.24099
C          0.22408        1.03502        6.98341
C         -1.07962        2.94236        1.96095
C         -1.41348        3.00332        3.46754
C         -2.55625        4.00887        3.71791
F         -3.65268        3.74420        2.97612
F         -2.91418        3.99008        5.02184
F         -2.13814        5.26844        3.41353
O         -1.77485        1.70577        3.89377
C          4.62393        1.80746       -0.26717
H          1.92980       -1.68439       -0.54770
H          3.77237       -0.53023       -1.08779
H          3.79328       -0.65161        0.69053
H          2.56924        1.64324       -0.93759
H          3.11731        1.39103        2.08063
H          0.73848        4.86350        1.83128
H          0.61573        1.15394        0.45643
H          1.23469       -0.48213        2.11238
H         -0.33840        0.20143        2.46013
H         -0.30161       -1.38796        3.85849
H         -0.15967       -1.64581        5.58578
H          2.05029       -2.29448        3.52306
H          1.00949       -3.47316        4.35278
H          2.19969       -2.53400        5.27641
H          2.23439        0.98729        6.17226
H          1.66489       -0.58263        6.77472
H         -0.01714        1.99261        6.50105
H          0.52204        1.25454        8.01704
H         -0.68168        0.41273        7.02701
H         -1.60040        2.08655        1.51377
H         -1.42895        3.85038        1.45425
H         -0.53650        3.38481        4.02053
H         -1.83428        1.69837        4.86402
H          5.26945        1.49678        0.56785
H          4.65621        2.90350       -0.33188
H          5.06747        1.42348       -1.19455
