130

C          2.30108       -4.39005        1.83922
C          3.73957       -3.91480        1.61947
C          3.89039       -2.98381        0.41142
C          5.32380       -2.49542        0.17929
C          5.45816       -1.56665       -1.03139
C          6.88419       -1.06131       -1.27421
C          6.99344       -0.14843       -2.49910
C          8.40790        0.37721       -2.76556
C          8.48039        1.24907       -4.02256
C          9.88381        1.80198       -4.30973
C          9.90790        2.64604       -5.57970
C          9.66858        1.89994       -6.92383
C         10.32586        0.51097       -6.97839
C         10.17471       -0.19568       -8.33272
C         11.13053       -1.38023       -8.53867
C         12.43448       -1.12124       -9.39174
C         13.52085       -0.06716       -8.93782
C         14.35750       -0.21240       -7.60565
C         15.27042       -1.47408       -7.33235
C         16.40850       -1.82396       -8.36298
F         17.14580       -0.73258       -8.64596
F         17.20200       -2.75645       -7.81543
F         15.89160       -2.30931       -9.50195
F         15.87550       -1.21277       -6.14170
F         14.48002       -2.56163       -7.18468
F         15.14918        0.89308       -7.56010
F         13.49695       -0.14336       -6.54930
F         14.40823        0.03854       -9.95428
F         12.87871        1.14719       -8.82283
F         13.06226       -2.30419       -9.57893
F         12.00946       -0.66168      -10.60912
F         11.50735       -1.93834       -7.34496
F         10.47395       -2.35452       -9.24434
N         10.32685        2.84953       -7.85043
C         11.35574        3.44700       -7.19058
N         12.34077        4.11561       -7.78591
N         11.21068        3.31012       -5.86684
C         12.08787        3.96012       -4.89432
C         13.37276        3.14885       -4.65718
C         14.48439        4.00473       -4.03270
S         16.14775        3.43737       -4.47045
C         16.38064        4.15427       -6.09202
S         15.24353        5.16152       -6.83966
N         17.57083        3.86451       -6.64506
C         18.60123        3.05538       -5.96856
C         18.53318        1.56521       -6.32481
C         19.66184        0.76215       -5.67046
C         19.62159       -0.72571       -6.03419
C         20.75732       -1.54455       -5.41371
C         20.70845       -3.02972       -5.78814
C         21.84961       -3.85485       -5.18296
C         21.78640       -5.33925       -5.55118
C         17.93443        4.35236       -7.98815
C         18.64731        5.70877       -7.96687
C         19.08245        6.14244       -9.37034
C         19.75950        7.51670       -9.39491
C         20.19552        7.95559      -10.79622
C         20.85131        9.33957      -10.82973
C         21.26136        9.79098      -12.23578
C         21.90054       11.18117      -12.26505
H          2.22458       -5.05468        2.71048
H          1.92551       -4.94371        0.96575
H          1.62126       -3.54175        2.00834
H          4.40113       -4.78803        1.48886
H          4.09972       -3.39766        2.52478
H          3.22461       -2.11154        0.53849
H          3.53185       -3.50464       -0.49439
H          5.99055       -3.36576        0.04789
H          5.68326       -1.97388        1.08376
H          4.78346       -0.70184       -0.90369
H          5.10193       -2.09443       -1.93402
H          7.56342       -1.92315       -1.39722
H          7.23978       -0.52102       -0.37958
H          6.30612        0.70709       -2.37854
H          6.63764       -0.69574       -3.39003
H          9.10505       -0.47264       -2.86797
H          8.75901        0.95626       -1.89411
H          7.77433        2.09160       -3.92711
H          8.12266        0.65624       -4.88198
H         10.62158        0.98706       -4.37229
H         10.19344        2.43118       -3.46040
H          9.14335        3.44093       -5.49036
H          8.59576        1.85108       -7.15174
H          9.87954       -0.12479       -6.20316
H         11.38345        0.62326       -6.71301
H         10.30979        0.48267       -9.18704
H          9.16248       -0.61190       -8.43154
H         10.45058        2.60148       -8.82727
H         12.42404        4.07117       -8.79478
H         13.20576        4.40290       -7.28102
H         11.51693        4.11007       -3.96898
H         12.34406        4.96305       -5.27222
H         13.72326        2.77169       -5.62764
H         13.16085        2.26448       -4.03913
H         14.46833        3.98036       -2.93429
H         14.41320        5.05170       -4.36259
H         18.51720        3.20632       -4.88244
H         19.57535        3.47434       -6.26235
H         18.58540        1.45188       -7.41988
H         17.55645        1.16281       -6.01541
H         19.60577        0.87412       -4.57377
H         20.63627        1.18594       -5.96960
H         19.65560       -0.83157       -7.13233
H         18.65335       -1.15053       -5.71924
H         20.72473       -1.44301       -4.31458
H         21.72734       -1.12019       -5.72707
H         20.73052       -3.12984       -6.88808
H         19.74054       -3.45542       -5.46792
H         21.83316       -3.74554       -4.08534
H         22.81435       -3.43347       -5.51276
H         20.85344       -5.79996       -5.19340
H         22.62232       -5.89920       -5.11042
H         21.82823       -5.48372       -6.64120
H         17.01277        4.41601       -8.58096
H         18.58089        3.58341       -8.43757
H         19.52654        5.65747       -7.30343
H         17.96718        6.45899       -7.53521
H         18.20210        6.15948      -10.03641
H         19.76884        5.38799       -9.79337
H         20.63574        7.50536       -8.72350
H         19.06845        8.26845       -8.97547
H         19.31830        7.95299      -11.46722
H         20.89476        7.20922      -11.21267
H         21.73959        9.34003      -10.17338
H         20.15782       10.08239      -10.39710
H         20.37440        9.77912      -12.89197
H         21.96157        9.05361      -12.66387
H         21.21513       11.94461      -11.86772
H         22.17213       11.47910      -13.28706
H         22.81679       11.21343      -11.65667
