34

O          5.38802       -0.31627       -1.09602
C          4.57991        0.85407       -0.93082
C          3.13690        0.35273       -0.89006
C          2.66940       -0.20436       -2.25728
N          1.20869       -0.17656       -2.47796
C          0.40333       -1.09923       -1.90493
N         -0.90134       -1.17558       -2.27401
N         -1.69460       -2.14260       -1.63591
O         -1.91790       -3.22425       -2.52872
O         -2.94088       -1.47466       -1.45159
N          0.87486       -1.93946       -0.98643
C          0.69171        0.93919       -3.28826
C          0.98843        0.78289       -4.79076
C          0.33214       -0.38248       -5.50718
Br        -1.63902       -0.34789       -5.46413
Br         0.56683        2.49810       -5.64709
O          3.02429       -0.65279        0.13400
H          6.31166       -0.10762       -0.88874
H          4.71906        1.56859       -1.76089
H          4.80597        1.36800        0.01728
H          2.47814        1.18398       -0.59308
H          3.03864       -1.23142       -2.38971
H          3.10968        0.39935       -3.06042
H         -1.23850       -0.81759       -3.18405
H         -2.51834       -2.88599       -3.23165
H         -3.33946       -1.95343       -0.70007
H          1.71133       -1.66456       -0.43769
H          0.21323       -2.61414       -0.61127
H          1.16957        1.86231       -2.93267
H         -0.38475        1.06350       -3.11721
H          2.07118        0.67129       -4.95163
H          0.62147       -1.33960       -5.05384
H          0.59177       -0.39224       -6.56934
H          3.89184       -1.10810        0.14214
