63

O          1.42041        1.07128       -0.94356
C          2.71716        0.65881       -0.52093
C          3.08806        1.54700        0.65845
O          4.41963        1.21077        1.04493
C          4.91068        1.98446        2.11940
C          6.34468        1.51063        2.36470
C          7.21219        2.31908        3.33921
N          6.54411        2.51895        4.64966
C          6.13634        3.79232        4.78592
N          5.32902        4.21284        5.77384
N          6.63104        4.57916        3.82450
C          7.57494        3.79686        2.97736
C          7.51579        4.17112        1.49696
C          8.54940        3.31766        0.74055
O          9.46892        2.78814        1.37726
N          8.39377        3.15605       -0.59926
C          7.35133        3.80924       -1.39942
C          6.17082        2.90114       -1.75827
C          9.33697        2.24986       -1.28504
C          9.03442        0.76618       -1.06038
C          6.60090        6.04239        3.85296
C          5.38110        6.64904        3.14671
C          5.42700        8.17980        3.19847
C          4.20331        8.82445        2.54307
S          4.34347       10.62227        2.64074
O          4.19207       11.03567        4.02117
O          5.48122       11.01798        1.85010
O          3.01036       11.06878        1.83067
H          1.10641        0.45756       -1.62422
H          3.47032        0.78571       -1.32065
H          2.73145       -0.39849       -0.20384
H          2.38229        1.38778        1.49478
H          3.02722        2.61113        0.35791
H          4.27614        1.84544        3.01960
H          4.86359        3.06397        1.86679
H          6.86802        1.45830        1.39940
H          6.30790        0.47017        2.72437
H          8.15004        1.77286        3.49009
H          6.05316        1.75588        5.10538
H          5.10661        3.59848        6.54697
H          5.15241        5.20011        5.90926
H          8.59847        3.98808        3.33670
H          7.78219        5.23358        1.37419
H          6.50168        4.04722        1.09919
H          7.83202        4.18406       -2.31590
H          7.00150        4.70054       -0.86379
H          6.48651        2.06986       -2.40182
H          5.41121        3.47430       -2.30757
H          5.70154        2.47015       -0.86300
H         10.34718        2.48335       -0.92281
H          9.29456        2.49964       -2.35387
H          9.14517        0.50344       -0.00107
H          9.74384        0.15289       -1.63191
H          8.01983        0.50207       -1.38572
H          7.53083        6.39448        3.38379
H          6.65604        6.38424        4.90073
H          4.45579        6.27606        3.61662
H          5.35708        6.30031        2.10261
H          6.33678        8.54227        2.69511
H          5.49236        8.51768        4.24540
H          3.26476        8.55419        3.04660
H          4.12153        8.58178        1.47414
H          2.41246       11.50216        2.47000
