70

C          9.38671       -3.34464       -1.22780
C          9.01076       -2.34637       -0.12958
C          9.24554       -0.88631       -0.53277
C          8.88194        0.12526        0.55959
C          9.16014        1.57715        0.15826
C          8.79539        2.60448        1.23586
C          9.13854        4.04150        0.82284
C          8.69811        5.13997        1.80147
C          9.22656        4.99184        3.23058
N         10.69924        4.91649        3.26528
N         11.45111        5.83954        2.60545
C         12.68770        5.43213        2.75387
N         12.76014        4.28719        3.50614
C         11.47333        3.97802        3.83301
N         11.06162        2.92113        4.59726
C         10.33005        3.10461        5.80464
O          9.89135        4.17528        6.15408
O         10.24357        1.91837        6.41106
C          9.45419        1.88570        7.65593
C          7.98149        1.63925        7.37326
C          7.17616        1.50884        8.67507
C          5.68791        1.25136        8.42549
C         13.99520        3.62667        3.98129
C         14.65298        4.39027        5.13506
C         13.76797        4.53234        6.37491
C         14.44965        5.28289        7.52420
C         13.46331        5.65477        8.63913
N         12.42215        6.55562        8.12269
H          9.22097       -4.38077       -0.90359
H         10.44633       -3.25017       -1.50846
H          8.78965       -3.18246       -2.13710
H          9.58958       -2.56757        0.78363
H          7.95130       -2.48157        0.14535
H          8.66239       -0.66197       -1.44293
H         10.30482       -0.75290       -0.81601
H          9.44456       -0.11483        1.48042
H          7.81551        0.01435        0.82199
H          8.60629        1.81398       -0.76610
H         10.22904        1.68473       -0.09962
H          9.31795        2.33463        2.17200
H          7.71782        2.53217        1.46447
H          8.66727        4.25700       -0.14855
H         10.22386        4.12155        0.63818
H          7.60031        5.14916        1.89130
H          8.98559        6.12611        1.41111
H          8.86750        4.07250        3.70527
H          8.93036        5.83414        3.86930
H         13.55556        5.93029        2.33382
H         11.50019        2.01377        4.46015
H          9.62062        2.83186        8.18762
H          9.90708        1.06108        8.21978
H          7.87703        0.72099        6.77333
H          7.57984        2.47053        6.77210
H          7.29698        2.42766        9.27222
H          7.59490        0.69032        9.28341
H          5.22971        2.07044        7.85242
H          5.13951        1.16240        9.37217
H          5.53098        0.32039        7.86194
H         14.66236        3.53923        3.11347
H         13.72255        2.60797        4.28813
H         14.96650        5.38517        4.77740
H         15.58202        3.84934        5.37711
H         13.45852        3.53107        6.72480
H         12.84484        5.08458        6.13346
H         14.90892        6.20900        7.13610
H         15.27313        4.68449        7.94477
H         14.02754        6.06816        9.49508
H         12.96590        4.74212        9.00519
H         12.77404        7.51197        8.06227
H         11.62103        6.58441        8.75190
