45

C          4.25198        0.83045       -2.07674
C          3.92397        1.70497       -0.86382
C          4.75102        1.32039        0.37043
C          4.41637        2.18252        1.57756
O          5.16153        1.71893        2.76140
C          6.37625        2.23228        2.94774
O          6.92203        3.08013        2.26526
C          7.02911        1.61356        4.19635
C          8.50785        1.52125        4.04636
N          9.12517        0.41305        3.72926
N         10.45326        0.74881        3.63577
C         10.64321        2.06006        3.88209
N         11.80448        2.72314        3.84297
N          9.41035        2.58061        4.15371
C          9.09543        4.00137        4.38742
C          8.93178        4.34235        5.87517
C         10.15717        4.18108        6.75696
Br        11.72154        5.21995        6.16210
Br         8.21779        6.16801        5.96053
C         11.46938       -0.26874        3.32605
C         12.27731        0.08233        2.10568
C         13.61251        0.13693        2.10069
H          3.65414        1.12190       -2.94993
H          4.04589       -0.23013       -1.87168
H          5.31241        0.91644       -2.35637
H          2.85022        1.62302       -0.62761
H          4.10451        2.76375       -1.11109
H          5.82394        1.42088        0.13986
H          4.57205        0.26364        0.62621
H          3.36661        2.08086        1.87879
H          4.65476        3.24128        1.41114
H          6.63564        0.60555        4.36849
H          6.74455        2.22783        5.06487
H         12.62155        2.25602        3.46139
H         11.92637        3.60616        4.34926
H          8.17616        4.21731        3.83146
H          9.89473        4.60587        3.93781
H          8.13934        3.72293        6.32112
H         10.49090        3.13531        6.78402
H          9.95878        4.52098        7.77728
H         10.89241       -1.19178        3.17657
H         12.11421       -0.40712        4.20793
H         11.70848        0.26592        1.18946
H         14.20106       -0.06446        2.99964
H         14.16782        0.35000        1.18761
