76

C          0.80693       -1.38428       -1.14349
C          2.33306       -1.27742       -1.11307
C          2.87800       -0.15591       -2.00293
C          4.40533       -0.04619       -1.98731
C          4.94798        1.08787       -2.86187
C          6.47623        1.18738       -2.85957
C          7.01460        2.35757       -3.68807
C          8.54365        2.44245       -3.70914
C          9.07664        3.67538       -4.44527
C         10.60593        3.73611       -4.50533
C         11.14001        5.02363       -5.14058
C         12.66783        5.05740       -5.24620
C         13.20891        6.38863       -5.77715
C         14.73568        6.39364       -5.91149
C         15.27068        7.76277       -6.37242
C         16.75617        7.81632       -6.48649
N         17.53052        6.74398       -6.79803
C         18.83919        7.15514       -6.80336
N         18.91459        8.42991       -6.51047
N         17.61516        8.83427       -6.31674
C         17.33527       10.28036       -5.94915
C         16.68908       10.36454       -4.53499
C         17.07024        9.35739       -3.42826
C         18.54671        9.38634       -3.00895
C         16.16916        9.61236       -2.20991
C         18.68283       11.05730       -5.97975
O         19.27445       11.14039       -7.26014
C         16.40794       10.87726       -7.01827
Br        20.26740        6.04026       -7.17263
H          0.44550       -2.19531       -0.49646
H          0.44273       -1.58352       -2.16240
H          0.33598       -0.45046       -0.80180
H          2.77694       -2.23701       -1.42784
H          2.67176       -1.11306       -0.07615
H          2.43937        0.80615       -1.68372
H          2.53398       -0.31495       -3.04024
H          4.84255       -1.00449       -2.31887
H          4.74978        0.09981       -0.94829
H          4.52044        2.04664       -2.51906
H          4.59321        0.95238       -3.89867
H          6.90384        0.24221       -3.23792
H          6.83372        1.28611       -1.81940
H          6.60330        3.30158       -3.28890
H          6.63952        2.27842       -4.72351
H          8.95399        1.52926       -4.17481
H          8.92271        2.45017       -2.67188
H          8.69455        4.58498       -3.94925
H          8.67043        3.69644       -5.47172
H         10.98452        2.86350       -5.06600
H         11.01523        3.64179       -3.48393
H         10.79548        5.88900       -4.54796
H         10.70205        5.14917       -6.14600
H         13.00651        4.23479       -5.89999
H         13.10710        4.85970       -4.25279
H         12.90108        7.20395       -5.10045
H         12.75494        6.61287       -6.75734
H         15.02364        5.60753       -6.63182
H         15.19362        6.12793       -4.94474
H         14.94465        8.54712       -5.67740
H         14.83938        8.02145       -7.35530
H         17.18718        5.80131       -6.96911
H         15.59468       10.33665       -4.65706
H         16.90540       11.38324       -4.17140
H         16.84179        8.33729       -3.79085
H         18.84327       10.39309       -2.67875
H         19.22896        9.07743       -3.81200
H         18.71178        8.70380       -2.16420
H         16.35884       10.60922       -1.78507
H         16.36316        8.87397       -1.42094
H         15.10235        9.55741       -2.46956
H         19.37871       10.65704       -5.23041
H         18.42575       12.08402       -5.67992
H         19.83441       10.35581       -7.37613
H         15.44949       10.34999       -7.08837
H         16.89947       10.88826       -7.99804
H         16.18847       11.91622       -6.73909
