74

C          2.83639       -0.50454       -3.45528
C          3.67807       -0.24982       -2.20230
C          4.18652       -1.54200       -1.55256
C          5.03814       -1.26951       -0.30777
N          5.55199       -2.49218        0.32064
C          6.73817       -3.03904       -0.02741
O          7.52755       -2.54898       -0.83229
C          7.06122       -4.37867        0.66879
N          8.43368       -4.83292        0.29490
C          9.51686       -3.96926        0.93173
C         10.82746       -4.02522        0.14208
C         11.89991       -3.17107        0.77901
C         12.74533       -3.69667        1.76719
C         13.73673       -2.90348        2.35001
C         13.89188       -1.57295        1.95043
C         13.05427       -1.04048        0.96589
C         12.06431       -1.83538        0.38275
C          8.66675       -6.29177        0.63387
C          7.83932       -7.32310       -0.12852
C          8.04623       -7.41062       -1.65015
S          9.78217       -7.54687       -2.16891
C         10.11670       -5.89735       -2.78428
S          8.98980       -4.65702       -2.85914
N         11.40141       -5.75706       -3.19002
C         12.36473       -6.83871       -3.09904
C         12.58984       -7.65254       -4.21418
C         13.54416       -8.66831       -4.13800
C         14.27137       -8.86219       -2.95978
C         14.04698       -8.03926       -1.85219
C         13.09355       -7.02248       -1.91819
C         11.87544       -4.52060       -3.78459
C         12.72182       -3.68793       -3.04815
C         13.19496       -2.50908       -3.62703
C         12.83318       -2.17485       -4.93441
C         11.99874       -3.02368       -5.66797
C         11.51710       -4.20176       -5.09692
H          2.49443        0.43791       -3.90243
H          1.94391       -1.10434       -3.22381
H          3.41229       -1.04553       -4.22006
H          3.08560        0.32160       -1.46811
H          4.54032        0.38752       -2.46003
H          4.79102       -2.11136       -2.27728
H          3.33115       -2.18310       -1.27881
H          4.46061       -0.72436        0.45275
H          5.91115       -0.65619       -0.56924
H          4.94070       -2.99674        0.95513
H          6.34591       -5.14318        0.33811
H          7.00326       -4.30178        1.76428
H          8.53143       -4.70591       -0.76784
H          9.63758       -4.31789        1.96800
H          9.13836       -2.94207        0.93903
H         10.62388       -3.67335       -0.87865
H         11.18658       -5.06290        0.06323
H         12.63532       -4.73953        2.07689
H         14.39256       -3.32576        3.11224
H         14.66887       -0.95475        2.40106
H         13.17549       -0.00462        0.64646
H         11.42037       -1.42236       -0.39721
H          8.49149       -6.38915        1.71416
H          9.73128       -6.47428        0.44309
H          6.76131       -7.20251        0.06615
H          8.10567       -8.28739        0.33201
H          7.64115       -6.53336       -2.18125
H          7.54878       -8.31017       -2.03602
H         12.01938       -7.48629       -5.12799
H         13.72182       -9.30657       -5.00379
H         15.01913       -9.65389       -2.90640
H         14.62036       -8.18463       -0.93635
H         12.91528       -6.36946       -1.06337
H         13.00956       -3.95276       -2.03116
H         13.84950       -1.85407       -3.05135
H         13.20397       -1.25399       -5.38479
H         11.72012       -2.76807       -6.69057
H         10.85662       -4.86490       -5.65575
