28

C          4.63708        1.94074       -3.14425
C          4.44820        0.48113       -2.72348
C          4.93219        0.20994       -1.29370
C          4.69138       -1.22383       -0.80519
N          5.37355       -2.24435       -1.63675
C          4.66521       -3.00059       -2.46389
O          3.39972       -2.95783       -2.58450
C          5.26855       -4.02716       -3.39715
S          3.68428       -4.44423       -4.27111
Br         4.54510       -5.93053       -5.71734
N          2.78392       -5.52465       -3.39797
C          6.83742       -2.28867       -1.59244
H          4.28822        2.10564       -4.17173
H          5.69471        2.23872       -3.09991
H          4.07342        2.61985       -2.48906
H          4.99038       -0.17118       -3.43092
H          3.38540        0.20100       -2.80627
H          4.40079        0.86885       -0.58876
H          5.99847        0.47315       -1.19535
H          3.62169       -1.46510       -0.82115
H          5.05840       -1.35599        0.22335
H          5.68413       -4.92245       -2.91618
H          5.97453       -3.64991       -4.15073
H          2.29410       -5.05655       -2.63225
H          3.25418       -6.39168       -3.13436
H          7.16376       -2.16384       -0.55267
H          7.27363       -1.48251       -2.19953
H          7.21059       -3.25274       -1.95441
