56

C          0.64084       -0.04767        0.09124
C          2.17120       -0.04826        0.06820
C          2.75304        0.00562       -1.34925
C          4.28466        0.01425       -1.38156
C          4.86326        0.05297       -2.80004
C          6.39574        0.09612       -2.82319
C          6.96707        0.10443       -4.24668
C          8.49349        0.21706       -4.22720
N          9.07596        0.16898       -5.59604
C          9.26954       -1.01996       -6.26407
C          9.71087       -0.71624       -7.52004
N          9.77820        0.65397       -7.61659
C          9.38827        1.18844       -6.43157
C          9.34740        2.66728       -6.07721
C         10.57713        3.20698       -5.27970
F         10.62660        2.58372       -4.06492
F         11.71809        2.92014       -5.95286
F          9.24602        3.40357       -7.21809
F          8.23345        2.91673       -5.32223
C         10.26261        1.34854       -8.88667
O         11.46286        1.98659       -8.72134
C         12.63678        1.13730       -8.56525
C         13.00845        0.35386       -9.81754
C         14.33458       -0.40214       -9.64178
C         14.72903       -1.20227      -10.88574
H          0.25456       -0.09344        1.11823
H          0.23235       -0.91039       -0.45553
H          0.23443        0.86178       -0.37571
H          2.54877       -0.94934        0.58046
H          2.55025        0.80977        0.64875
H          2.37158        0.90412       -1.86567
H          2.37903       -0.85676       -1.92895
H          4.66702       -0.87842       -0.85639
H          4.65714        0.88333       -0.81162
H          4.46717        0.93347       -3.33479
H          4.51223       -0.82895       -3.36345
H          6.79741       -0.77014       -2.26998
H          6.74331        0.99311       -2.28265
H          6.54986        0.94916       -4.81616
H          6.66991       -0.81612       -4.77522
H          8.95047       -0.62138       -3.68393
H          8.82536        1.14023       -3.74528
H          9.07459       -1.97514       -5.79116
H          9.97867       -1.35800       -8.35120
H         10.48302        4.29540       -5.13501
H          9.51134        2.09490       -9.16078
H         10.27430        0.53305       -9.62759
H         12.49244        0.47101       -7.69579
H         13.42812        1.85008       -8.30118
H         13.08259        1.05326      -10.66534
H         12.22055       -0.37493      -10.07755
H         14.25997       -1.07928       -8.77413
H         15.13143        0.31875       -9.39684
H         13.96904       -1.95685      -11.13691
H         15.67971       -1.72851      -10.73170
H         14.84960       -0.54729      -11.76025
