83

C          0.59186        1.13107       -0.37336
C          2.11964        1.12583       -0.28997
C          2.64534        1.06404        1.14767
C          4.17345        1.06214        1.24376
C          4.69908        1.00653        2.68146
C          6.22741        1.01776        2.77430
C          6.76019        0.98096        4.21017
C          8.28908        1.00586        4.28879
C          8.84230        0.99767        5.71738
C         10.37267        1.01237        5.76536
C         10.95962        1.00806        7.18025
C         12.49081        0.99358        7.18628
C         13.11909        0.95914        8.58254
C         14.64906        0.90048        8.53868
C         15.31500        0.84512        9.91815
C         16.84898        0.77662        9.86819
C         17.39338       -0.56505        9.35892
C         18.91904       -0.55906        9.19181
C         19.45772       -1.87603        8.64668
N         19.15586       -3.02127        9.54461
C         20.12241       -3.93529        9.45510
N         20.07614       -5.14912       10.02856
C         18.98814       -5.57387       10.89286
O         17.77613       -5.51659       10.16954
C         16.66832       -6.00976       10.94262
N         21.14957       -3.48367        8.70738
C         21.01179       -2.03819        8.45612
N         21.82448       -1.22976        9.37371
C         23.05245       -1.86611        9.85633
C         22.14745        0.06392        8.75645
H          0.24343        1.17631       -1.41446
H          0.16798        1.99646        0.15763
H          0.16575        0.22435        0.08150
H          2.51978        2.02808       -0.78272
H          2.51831        0.26862       -0.85849
H          2.24655        0.16042        1.64188
H          2.24504        1.92117        1.71759
H          4.57016        1.96499        0.74670
H          4.57368        0.20399        0.67542
H          4.30903        0.10071        3.17816
H          4.29369        1.86170        3.25030
H          6.61505        1.91918        2.26762
H          6.63343        0.15792        2.21263
H          6.38156        0.07680        4.71853
H          6.35119        1.83854        4.77261
H          8.66424        1.90074        3.76161
H          8.69523        0.13923        3.73759
H          8.46720        0.10703        6.25160
H          8.44874        1.87001        6.26776
H         10.74368        1.89953        5.22252
H         10.75909        0.13789        5.21210
H         10.58268        0.12863        7.73145
H         10.59670        1.89190        7.73295
H         12.86439        1.87902        6.64259
H         12.84287        0.11777        6.61205
H         12.73434        0.08535        9.13730
H         12.80041        1.84712        9.15512
H         15.03060        1.78157        7.99318
H         14.94498        0.02258        7.93809
H         14.92579       -0.01882       10.48566
H         15.02093        1.73790       10.49258
H         17.26176        0.96733       10.87217
H         17.22558        1.58841        9.22206
H         16.92665       -0.81539        8.39179
H         17.08504       -1.35238       10.07011
H         19.42309       -0.32536       10.14118
H         19.17993        0.23727        8.47835
H         18.98498       -2.09138        7.67174
H         18.20336       -3.32341        9.74169
H         20.76407       -5.83802        9.74587
H         18.94302       -4.91385       11.78101
H         19.21894       -6.59998       11.22702
H         15.78424       -5.92709       10.30292
H         16.52046       -5.41252       11.85770
H         16.82416       -7.06581       11.21646
H         22.06600       -3.91790        8.74769
H         21.28386       -1.83649        7.40178
H         22.83363       -2.73914       10.48484
H         23.57775       -1.14494       10.49390
H         23.75555       -2.15978        9.04628
H         21.23936        0.57760        8.42371
H         22.82501       -0.04397        7.88464
H         22.63834        0.70306        9.50052
