63

N          0.05807        0.57102        1.07963
C          1.50493        0.59018        0.91460
C          2.12849       -0.55581        1.72836
C          3.66801       -0.60636        1.56130
C          4.25267       -1.79406        2.25455
C          4.68146       -1.73923        3.59596
C          5.18598       -2.86712        4.19882
C          5.26218       -4.06943        3.45021
N          4.83702       -4.11313        2.19102
N          4.34518       -2.99612        1.63713
C          3.94780       -3.19567        0.22643
C          5.13149       -2.95285       -0.72618
O          4.54107       -2.65129       -1.97144
C          5.38907       -2.79782       -3.09618
C          4.52955       -3.05075       -4.34087
C          3.99911       -4.51244       -4.57759
C          3.03991       -5.21690       -3.54905
C          1.63548       -4.57596       -3.32991
F          0.86970       -5.47460       -2.65187
F          1.74650       -3.45477       -2.55742
F          2.82881       -6.46514       -4.04483
F          3.68162       -5.35027       -2.34650
F          3.34189       -4.51260       -5.77171
F          5.09844       -5.31394       -4.68383
F          3.46737       -2.19343       -4.37646
F          5.31940       -2.78165       -5.42627
C          5.82341       -5.33274        4.04016
C          5.68673       -6.59510        3.18760
C          6.29820       -7.82867        3.87789
C          6.11731       -9.08720        3.05955
C          4.98902       -9.90042        3.24098
C          4.79922      -11.04410        2.46186
C          5.73806      -11.39062        1.48630
C          6.86750      -10.58929        1.29743
C          7.05396       -9.44663        2.07916
H         -0.41943        1.01030        0.29510
H         -0.23972        1.05007        1.92858
H          1.98859        1.54603        1.20027
H          1.73034        0.43112       -0.15137
H          1.66522       -1.50150        1.40754
H          1.88190       -0.43691        2.79543
H          4.11580        0.29613        2.00217
H          3.93286       -0.59747        0.49506
H          4.60645       -0.79061        4.12709
H          5.52901       -2.84875        5.23422
H          3.13226       -2.51061       -0.02380
H          3.58212       -4.22365        0.15108
H          5.76726       -3.85384       -0.78248
H          5.75956       -2.11449       -0.36238
H          6.09515       -3.63658       -2.97654
H          5.96450       -1.87615       -3.29244
H          1.14642       -4.32054       -4.28238
H          5.34665       -5.47765        5.02578
H          6.88733       -5.13789        4.27156
H          6.16996       -6.44595        2.21025
H          4.62341       -6.78551        2.97262
H          5.83179       -7.96325        4.86748
H          7.37124       -7.65230        4.05816
H          4.25686       -9.64196        4.01000
H          3.92106      -11.67059        2.62307
H          5.59319      -12.28665        0.88211
H          7.61004      -10.86004        0.54583
H          7.94641       -8.83255        1.93497
