44

O          3.99176        0.90628        0.08666
C          4.11139        0.05406       -1.05114
C          3.47018       -1.27844       -0.67928
O          3.65626       -2.19328       -1.78100
C          4.18847       -3.41670       -1.45231
O          5.58171       -3.24331       -1.09362
C          6.29774       -4.45057       -0.96859
C          7.66727       -4.10330       -0.36984
C          8.65812       -5.29299       -0.48436
C          9.56080       -4.88851       -1.58862
N          9.39583       -3.66220       -1.95281
C          8.35431       -2.96389       -1.15383
C         10.19164       -2.93428       -2.97316
C         10.86823       -1.72458       -2.37385
C         10.37363       -0.45337       -2.69973
C         10.95046        0.69636       -2.16231
C         12.03037        0.57290       -1.28574
C         12.52861       -0.69043       -0.96238
C         11.96693       -1.86018       -1.49331
C         12.54595       -3.20258       -1.11831
H          4.03719        1.82811       -0.20519
H          5.17147       -0.12041       -1.31696
H          3.60363        0.47374       -1.93575
H          2.39121       -1.15266       -0.50290
H          3.93760       -1.66705        0.23839
H          4.11317       -4.05473       -2.34999
H          3.67154       -3.89614       -0.59508
H          6.41582       -4.94320       -1.95939
H          5.78429       -5.17270       -0.30426
H          7.52562       -3.80098        0.67430
H          8.17557       -6.26063       -0.69425
H          9.26038       -5.45421        0.42710
H         10.31965       -5.50995       -2.06826
H          7.66739       -2.42956       -1.82357
H          8.85922       -2.22336       -0.51853
H          9.48662       -2.62877       -3.75926
H         10.89790       -3.65722       -3.40372
H          9.53405       -0.36433       -3.39280
H         10.56678        1.67972       -2.43386
H         12.49396        1.46248       -0.85846
H         13.38184       -0.77520       -0.28704
H         13.52537       -3.08135       -0.64145
H         12.68952       -3.85679       -1.99126
H         11.91024       -3.74339       -0.39746
