92

C          1.49954       -7.96548        1.01834
C          2.99601       -7.66780        0.90656
C          3.30429       -6.49168       -0.02688
C          4.80495       -6.20015       -0.14965
C          5.09060       -5.02197       -1.06468
O          6.51349       -4.78238       -1.09477
C          6.87918       -3.66331       -1.88148
C          8.38648       -3.48993       -1.72364
N          9.03929       -4.76104       -2.04477
C         10.35781       -4.93733       -2.26000
N         11.21387       -3.94070       -1.97274
C         12.53970       -3.69947       -2.56626
C         12.89496       -2.21438       -2.49765
C         14.32442       -1.98116       -2.99992
C         14.75379       -0.51772       -2.88209
S         16.46949       -0.35570       -3.41679
O         17.32874       -0.99734       -2.44212
O         16.52900       -0.68848       -4.81718
O         16.67562        1.24833       -3.29143
N         10.77764       -6.10450       -2.78469
C         12.09398       -6.74456       -2.59671
C         11.95521       -8.26797       -2.55234
C         13.31762       -8.97903       -2.55315
C         14.19579       -8.69754       -1.32762
C         15.56498       -9.38320       -1.39841
C         16.46660       -9.05914       -0.20272
C         17.88944       -9.61052       -0.33659
C         18.79694       -9.24260        0.84189
C         20.25220       -9.68338        0.65615
C         21.16294       -9.28996        1.82377
C         22.63248       -9.65334        1.59425
C         23.52812       -9.24526        2.77208
N         24.94022       -9.52480        2.55490
C         25.56232      -10.73326        2.78565
C         26.87581      -10.63262        2.36148
C         27.05470       -9.31715        1.84897
C         25.84445       -8.65883        1.97721
H          1.30936       -8.80789        1.69656
H          1.06974       -8.22279        0.03923
H          0.94764       -7.09635        1.40512
H          3.52622       -8.56519        0.54600
H          3.40707       -7.45225        1.90692
H          2.78330       -5.59127        0.34178
H          2.88386       -6.70096       -1.02564
H          5.32766       -7.09190       -0.53307
H          5.22677       -5.98635        0.84558
H          4.58363       -4.11015       -0.69774
H          4.73029       -5.21810       -2.09228
H          6.37439       -2.74141       -1.53861
H          6.61566       -3.82203       -2.94572
H          8.60294       -3.19371       -0.68230
H          8.74668       -2.70452       -2.40386
H          8.46187       -5.57887       -1.84840
H         10.85935       -3.21009       -1.36280
H         12.51973       -4.04341       -3.61019
H         13.30832       -4.28011       -2.03450
H         12.81165       -1.87035       -1.45190
H         12.17651       -1.62787       -3.09244
H         14.41055       -2.29676       -4.05079
H         15.02236       -2.60460       -2.41909
H         14.71246       -0.15210       -1.84667
H         14.16515        0.14854       -3.52768
H         17.29946        1.40632       -2.55659
H         10.05755       -6.68129       -3.21175
H         12.52171       -6.37142       -1.65771
H         12.77177       -6.46221       -3.41802
H         11.38115       -8.59743       -3.43554
H         11.37283       -8.55762       -1.66242
H         13.86616       -8.70043       -3.46940
H         13.13791      -10.06241       -2.62851
H         13.66539       -9.01792       -0.41385
H         14.36355       -7.61131       -1.21873
H         16.07233       -9.07440       -2.32911
H         15.42725      -10.47516       -1.47576
H         16.00482       -9.44599        0.72235
H         16.52057       -7.96247       -0.07887
H         18.33638       -9.22654       -1.27046
H         17.85351      -10.70801       -0.44667
H         18.39237       -9.68468        1.76921
H         18.76958       -8.14835        0.99058
H         20.64681       -9.24029       -0.27499
H         20.29222      -10.77687        0.51207
H         20.80086       -9.77238        2.74871
H         21.07959       -8.20209        1.99651
H         23.00199       -9.16037        0.68049
H         22.73288      -10.73763        1.42536
H         23.21175       -9.76733        3.68857
H         23.42575       -8.16666        2.96759
H         25.02133      -11.55713        3.24068
H         27.62570      -11.41459        2.42707
H         27.96835       -8.89241        1.44498
H         25.55182       -7.64585        1.71863
