64

C          2.04121        8.60694        3.50642
C          2.83357        7.75787        4.50425
C          3.65094        6.65430        3.81955
C          4.41061        5.79640        4.82018
O          5.08390        4.68673        4.13208
C          6.36069        4.86084        3.77585
O          7.04864        5.83552        4.03693
C          6.83682        3.65841        2.96202
C          8.36067        3.64906        2.73473
C          9.12680        3.40276        4.04149
O          8.69529        2.13923        4.49993
C          9.37209        1.67810        5.68307
C          8.83099        0.30231        6.03590
C          9.46957       -0.26611        7.30626
S          8.72804        2.12691        1.67593
C          9.05407        3.10500        0.32601
N          9.02468        4.39018        0.50029
C          8.81810        4.87585        1.87474
C         10.07626        5.64480        2.32088
C         10.47906        6.71070        1.28968
O         10.10583        6.61604        0.09367
N         11.26197        7.72236        1.70998
C         11.68089        8.76432        0.74894
C         13.12777        8.60831        0.26441
C         13.40731        7.32190       -0.52222
C         14.84484        7.24955       -1.04342
C         11.72959        7.85349        3.09232
H          1.46608        9.38836        4.02005
H          1.32994        7.99199        2.93632
H          2.70648        9.10308        2.78478
H          2.14093        7.30178        5.23090
H          3.50750        8.40524        5.08910
H          4.36721        7.10719        3.11429
H          2.98302        6.00722        3.22831
H          3.73494        5.29770        5.52658
H          5.16354        6.37302        5.37256
H          6.30337        3.67797        1.99853
H          6.52336        2.73880        3.47227
H          8.89750        4.20350        4.76906
H         10.21835        3.40058        3.86040
H          9.19699        2.39701        6.50559
H         10.46161        1.64138        5.49108
H          9.00709       -0.37444        5.18535
H          7.73947        0.37719        6.15970
H         10.55777       -0.37917        7.19813
H          9.05692       -1.25611        7.53632
H          9.28365        0.37969        8.17643
H          9.29429        2.67190       -0.64709
H          9.40712        5.18342       -0.10613
H          7.99188        5.59900        1.84665
H         10.93111        4.96114        2.45268
H          9.86424        6.10223        3.29543
H         11.54598        9.73452        1.24965
H         10.98448        8.71835       -0.09611
H         13.82400        8.68215        1.11760
H         13.34475        9.48345       -0.36933
H         12.69829        7.25000       -1.36199
H         13.20684        6.44627        0.11846
H         15.06473        8.08474       -1.72377
H         15.02288        6.31785       -1.59611
H         15.57433        7.29249       -0.22160
H         12.15017        6.91396        3.47207
H         10.92630        8.19312        3.76342
H         12.52973        8.60037        3.11512
