53

C         19.63164       -2.52565       -0.71898
C         18.45341       -2.35965       -1.33011
C         17.31004       -3.26123       -1.05068
O         17.30021       -4.20238       -0.27722
O         16.22732       -2.88768       -1.80085
C         15.04645       -3.71053       -1.66636
C         14.24596       -3.37119       -0.40986
C         12.86364       -4.03915       -0.41675
C         12.14355       -3.99534        0.93975
C         11.92422       -2.57687        1.48460
C         11.16897       -2.52377        2.81515
N         11.84184       -3.29488        3.88585
C         11.23441       -4.25973        4.60385
N          9.87689       -4.31841        4.67385
C          9.07220       -3.16163        5.19059
C          9.51908       -2.73182        6.56513
C         10.40303       -1.65557        6.72598
C         10.86909       -1.29894        7.99136
C         10.46744       -2.00507        9.13711
C          9.58206       -3.08227        8.96875
C          9.11296       -3.44049        7.70505
C         10.93896       -1.59242       10.50592
N         11.97842       -5.19187        5.21396
N         13.23126       -3.17292        4.08948
H         20.47689       -1.87028       -0.92598
H         19.77364       -3.33280        0.00160
H         18.28461       -1.56666       -2.05960
H         15.34394       -4.76941       -1.66436
H         14.46501       -3.49862       -2.57378
H         14.15036       -2.27559       -0.35168
H         14.82379       -3.69894        0.46981
H         12.96810       -5.09555       -0.71093
H         12.22820       -3.57042       -1.18623
H         12.72676       -4.59677        1.66100
H         11.16872       -4.50255        0.85108
H         11.32707       -1.98986        0.76877
H         12.87863       -2.03457        1.57193
H         10.17233       -2.96603        2.69552
H         11.04926       -1.48144        3.15214
H          9.54802       -5.21104        5.03570
H          8.03296       -3.51364        5.18809
H          9.13080       -2.33106        4.47741
H         10.71443       -1.07486        5.85383
H         11.54741       -0.44995        8.09531
H          9.24529       -3.64046        9.84405
H          8.40799       -4.27084        7.61046
H         11.98281       -1.25245       10.48800
H         10.85438       -2.41379       11.22806
H         10.33265       -0.75604       10.88670
H         12.98818       -5.10094        5.11978
H         11.61152       -5.66973        6.02855
H         13.43599       -2.23813        4.45364
H         13.71695       -3.28423        3.19522
