66

C          0.89097       -0.90967       -0.33355
C          2.37913       -0.81659        0.00935
C          2.73116        0.44279        0.81004
C          4.22357        0.53449        1.15715
C          4.53542        1.80953        1.91164
O          5.97591        1.80119        2.24395
C          6.46427        2.91405        2.77095
O          5.85612        3.94221        3.00706
C          7.97562        2.75498        3.04825
C          8.42852        3.79979        3.99496
N          8.76943        3.55820        5.27323
N          8.98351        4.71604        5.86561
N          8.79443        5.67164        4.98614
N          8.45524        5.13645        3.78450
C          8.18282        5.94637        2.56997
C          8.81795        5.38523        1.31964
C         10.11224        5.11819        1.10456
Br        11.47530        5.33378        2.39229
Br         7.60872        5.12397       -0.12365
C          8.87513        7.10018        5.33688
C         10.33068        7.58669        5.36725
C         10.44397        9.10010        5.63888
C         10.87139       10.00732        4.42061
C          9.99745       10.06137        3.10349
C          8.49824       10.56425        3.08173
C          8.08262       12.00297        3.58953
C          8.67714       13.31391        2.93217
C          8.48066       13.63313        1.39410
C          7.02026       13.72142        0.81357
F          6.25017       14.52347        1.56490
F          7.08958       14.21732       -0.43127
F          6.45465       12.49880        0.75434
F          9.05925       14.84385        1.20782
F          9.16307       12.70991        0.66615
F          8.13505       14.33550        3.63764
F         10.01930       13.30721        3.14628
F          6.73096       12.04952        3.47082
F          8.39434       12.06627        4.90855
F          8.08533       10.41630        1.80110
F          7.76968        9.68507        3.84579
F         10.69394       10.77795        2.20320
F          9.92490        8.76007        2.63218
F         11.04322       11.26735        4.86937
F         12.08125        9.52346        4.00515
F          9.27915        9.59261        6.16929
F         11.42264        9.29864        6.56836
H          0.67071       -1.81820       -0.90932
H          0.56327       -0.04845       -0.93438
H          0.27141       -0.93459        0.57494
H          2.97550       -0.83355       -0.91824
H          2.68448       -1.70772        0.58275
H          2.13496        0.46312        1.73872
H          2.42874        1.33516        0.23467
H          4.82700        0.49979        0.23592
H          4.52134       -0.33305        1.76716
H          3.98350        1.88361        2.85990
H          4.33290        2.71355        1.32058
H          8.50955        2.81048        2.08814
H          8.18573        1.77474        3.49271
H          8.57342        6.95376        2.75773
H          7.09244        5.99031        2.46326
H         10.48650        4.74323        0.15448
H          8.40708        7.17199        6.32536
H          8.24725        7.65324        4.63300
H         10.84828        7.33727        4.43408
H         10.86218        7.08179        6.18433
