66

S          4.70415       -0.36936        6.11461
C          6.25019       -0.78331        6.52774
N          7.06651       -0.04430        7.33868
C          6.66577        1.26771        7.80548
C          6.42153        1.45523        9.16737
C          6.09344        2.72940        9.63524
C          6.01498        3.80524        8.74760
C          6.26602        3.60818        7.38591
C          6.59447        2.33910        6.91004
C          8.35341       -0.50249        7.80178
C          9.49783        0.23758        7.47520
C         10.74366       -0.16661        7.95471
C         10.85214       -1.30681        8.75923
C          9.70709       -2.03570        9.09284
C          8.45445       -1.63041        8.62738
S          7.06313       -2.28886        5.94568
C          5.84608       -2.95972        4.77653
C          5.78045       -2.30169        3.38698
C          7.10798       -1.86703        2.77210
S          8.38002       -3.19872        2.78456
Si         7.76136       -4.70924        1.17056
C          6.98872       -3.74146       -0.22768
C          9.38218       -5.53153        0.73929
C          6.57378       -5.83152        2.07598
C          9.87811       -2.39531        2.07710
C         10.35918       -1.16942        2.85975
C         10.43989       -1.26907        4.39405
C         11.14024       -2.48021        5.02378
S         12.82128       -2.71409        4.41935
O         12.74708       -3.30989        3.10252
O         13.59195       -1.51260        4.65886
O         13.36465       -3.88260        5.40348
H          6.48624        0.60933        9.85211
H          5.89895        2.88036       10.69727
H          5.75931        4.79878        9.11611
H          6.20776        4.44681        6.69167
H          6.78428        2.17219        5.84967
H          9.40199        1.13351        6.86143
H         11.63251        0.41429        7.70544
H         11.82517       -1.61137        9.14591
H          9.78252       -2.90998        9.74004
H          7.55446       -2.17602        8.91061
H          4.85846       -2.89353        5.25509
H          6.13054       -4.02083        4.71372
H          5.17558       -1.38559        3.47053
H          5.23592       -2.97451        2.70635
H          7.56401       -1.07822        3.38463
H          6.99071       -1.50445        1.74349
H          7.66967       -2.98504       -0.63979
H          6.05149       -3.25407        0.07040
H          6.74985       -4.44351       -1.04113
H         10.05680       -4.86782        0.18420
H          9.16101       -6.39576        0.09428
H          9.90797       -5.90998        1.62608
H          5.64691       -5.32170        2.36673
H          7.03387       -6.27087        2.97082
H          6.29921       -6.65811        1.40310
H          9.67361       -2.13870        1.02932
H         10.63187       -3.19421        2.10911
H          9.73221       -0.30033        2.61249
H         11.35385       -0.94550        2.44296
H          9.42813       -1.26045        4.82967
H         10.92981       -0.35475        4.75562
H         10.62132       -3.43085        4.83854
H         11.21004       -2.33750        6.11036
H         13.97639       -3.47138        6.04491
