62

C          1.14982        0.02224        0.24025
C          2.63461        0.01916       -0.14215
C          3.15137       -1.39747       -0.29268
O          4.57069       -1.32268       -0.70420
C          5.22346       -2.46356       -0.83027
O          4.72716       -3.57764       -0.64108
C          6.68651       -2.25467       -1.20776
C          7.29290       -3.43244       -1.99128
C          6.70389       -3.47109       -3.42347
N          6.98220       -4.66216       -4.19523
C          6.58526       -5.87430       -3.48737
C          7.25779       -5.97658       -2.11460
N          7.02541       -4.75234       -1.26144
C          7.78351       -4.84741        0.04493
C          7.30759       -6.00621        0.91366
C          7.94624       -5.96505        2.30471
C          7.57514       -7.21950        3.10179
O          6.93340       -8.13245        2.64309
O          8.02032       -7.26499        4.38370
C          6.88236       -7.13987       -4.29790
C          6.18159       -7.11715       -5.66203
C          6.06253       -8.45358       -6.39457
C          7.26497       -8.95473       -7.28279
C          8.65368       -9.34877       -6.64607
C          8.70294      -10.48852       -5.56341
F          8.02465      -11.57089       -5.96083
F          9.98727      -10.82505       -5.35324
F          8.18941      -10.05366       -4.38876
F          9.44245       -9.74192       -7.67256
F          9.21396       -8.22975       -6.08588
F          6.83562      -10.03096       -7.98473
F          7.54975       -7.94754       -8.16296
F          5.72460       -9.46611       -5.52906
F          5.02744       -8.33335       -7.28906
H          0.78749        1.05033        0.36099
H          0.97320       -0.50505        1.18892
H          0.53247       -0.45870       -0.53191
H          3.22670        0.54214        0.62425
H          2.78416        0.56163       -1.08811
H          2.61348       -1.96115       -1.06863
H          3.10393       -1.96836        0.64565
H          7.24011       -2.03581       -0.28205
H          6.77383       -1.34535       -1.81737
H          8.38772       -3.33043       -2.04324
H          7.08464       -2.58888       -3.95674
H          5.60799       -3.35376       -3.36259
H          7.95584       -4.70693       -4.50409
H          5.49103       -5.80604       -3.33457
H          8.34776       -6.08901       -2.22695
H          6.87512       -6.83403       -1.54825
H          6.00058       -4.66410       -1.00829
H          7.63162       -3.89591        0.56883
H          8.85078       -4.92869       -0.20953
H          7.54670       -6.97725        0.46170
H          6.21174       -5.97117        1.01855
H          7.62669       -5.07137        2.86619
H          9.04646       -5.91527        2.23372
H          8.52224       -6.46277        4.61333
H          6.53845       -8.01019       -3.72136
H          7.97046       -7.24892       -4.41271
H          6.64157       -6.39159       -6.34474
H          5.13703       -6.79651       -5.52813
