51

C          2.22381        1.19589        0.07589
C          2.60979       -0.28255        0.15482
C          3.60255       -0.68950       -0.94431
C          3.94005       -2.16636       -0.85737
O          4.82117       -2.56020       -1.97914
C          6.09438       -2.81731       -1.70176
O          6.66093       -2.77317       -0.62403
N          6.74079       -3.19100       -2.90183
C          8.04063       -3.61763       -2.99481
N          8.50611       -4.00134       -4.19721
C          9.90715       -4.43749       -4.28568
O         10.68145       -3.71614       -3.35528
C         10.28294       -3.95068       -2.00352
N          8.81377       -3.67263       -1.92774
C         10.45966       -5.36226       -1.62328
C         10.55870       -6.53322       -1.33695
C         11.08808       -2.96111       -1.06275
C         12.55047       -3.51276       -0.82638
C         13.33976       -3.90688       -2.08764
C         13.42350       -2.55196        0.00323
C         11.15255       -1.55858       -1.70006
O          9.83146       -1.05743       -1.96086
C         10.35298       -2.89534        0.29324
H          1.52115        1.46191        0.87594
H          1.74175        1.43150       -0.88367
H          3.10541        1.84508        0.17682
H          1.70344       -0.90514        0.07645
H          3.04843       -0.49930        1.14233
H          4.52562       -0.09496       -0.85154
H          3.17199       -0.47189       -1.93456
H          3.05174       -2.79779       -0.98819
H          4.44607       -2.42763        0.08017
H          6.14683       -3.26727       -3.72380
H          8.02821       -3.68612       -5.03497
H         10.29006       -4.20063       -5.28423
H          9.96674       -5.52224       -4.09720
H          8.37636       -3.36490       -1.04816
H         10.66576       -7.56569       -1.06963
H         12.41209       -4.42661       -0.22535
H         13.48451       -3.05578       -2.76796
H         12.87137       -4.71933       -2.65334
H         14.33764       -4.25282       -1.78558
H         13.72922       -1.67099       -0.57920
H         14.34395       -3.07410        0.29530
H         12.94688       -2.20244        0.92730
H         11.73940       -1.59019       -2.63118
H         11.67160       -0.90032       -0.98635
H          9.90774       -0.10689       -2.13315
H         10.13617       -3.89927        0.68536
H          9.42219       -2.31578        0.23361
H         10.97973       -2.38705        1.03318
