77

C          1.31927       -2.93817        0.30605
C          2.48405       -1.96030        0.47887
C          3.19763       -1.64893       -0.84260
C          4.33827       -0.63529       -0.70467
N          5.47399       -1.16226        0.09183
C          6.46175       -1.59125       -0.71731
N          7.53302       -2.27952       -0.32812
C          8.65561       -2.66601       -1.20084
C          9.80537       -3.22859       -0.36720
C         11.01102       -3.62674       -1.22654
C         12.19836       -4.12292       -0.39313
C         13.43913       -4.43696       -1.23558
C         14.64770       -4.87300       -0.40045
C         15.92551       -5.05959       -1.22504
C         17.14381       -5.44938       -0.38189
C         18.43998       -5.56594       -1.19041
C         19.65867       -5.93182       -0.33677
C         20.96169       -6.01474       -1.13652
C         22.16439       -6.38994       -0.25990
N         23.41901       -6.45794       -0.99393
C         24.30083       -5.41280       -1.16705
C         25.31906       -5.83869       -2.00100
C         25.03973       -7.18851       -2.35259
C         23.86062       -7.54218       -1.72126
N          6.21589       -1.21006       -1.98371
C          5.05710       -0.29126       -2.04618
C          5.53075        1.16983       -2.19242
C          4.58401        2.16648       -2.89528
C          3.26952        2.44554       -2.14232
F          3.51207        2.86152       -0.86337
F          2.53408        3.38577       -2.74737
F          2.50525        1.31414       -2.05610
O          5.25841        3.37817       -3.16671
H          0.82094       -3.13211        1.26431
H          1.66057       -3.90401       -0.09398
H          0.56479       -2.53787       -0.38577
H          3.19652       -2.38373        1.20961
H          2.11665       -1.01830        0.91919
H          2.47032       -1.22832       -1.55425
H          3.58421       -2.57667       -1.29908
H          3.97230        0.27934       -0.22028
H          5.33051       -1.54727        1.01931
H          7.59507       -2.54794        0.64919
H          9.00063       -1.77480       -1.75165
H          8.30815       -3.41178       -1.93477
H          9.44805       -4.10547        0.19977
H         10.11591       -2.47075        0.37173
H         11.33090       -2.75828       -1.82815
H         10.71130       -4.40645       -1.94715
H         11.89928       -5.01933        0.17719
H         12.45748       -3.35675        0.35833
H         13.71077       -3.54133       -1.82192
H         13.19711       -5.22035       -1.97453
H         14.40985       -5.81068        0.13157
H         14.83400       -4.11942        0.38527
H         16.14475       -4.12282       -1.76729
H         15.75524       -5.82487       -2.00243
H         16.94380       -6.40596        0.13199
H         17.28334       -4.70131        0.41863
H         18.63276       -4.61055       -1.70919
H         18.31106       -6.32026       -1.98612
H         19.47337       -6.89674        0.16762
H         19.77166       -5.18702        0.47103
H         21.16785       -5.04954       -1.62708
H         20.86382       -6.75793       -1.94448
H         21.99484       -7.36606        0.22097
H         22.28844       -5.65521        0.55018
H         24.13472       -4.46106       -0.67230
H         26.17607       -5.24830       -2.30896
H         25.63993       -7.83593       -2.98390
H         23.30399       -8.47408       -1.72040
H          6.92637       -1.23919       -2.70641
H          4.42271       -0.58010       -2.89619
H          6.43491        1.18028       -2.81942
H          5.82919        1.56720       -1.20881
H          4.28631        1.76641       -3.87828
H          5.45026        3.83893       -2.33145
