63

O          3.05145        1.60043       -0.91650
C          3.19166        0.60100       -0.25271
C          2.85260       -0.76902       -0.90880
C          2.55505       -0.75233       -2.45878
C          3.67234       -0.20717       -3.44881
C          5.14022       -0.55499       -3.04144
O          5.68761        0.03590       -2.13951
O          5.72235       -1.52640       -3.74361
F          3.39633       -0.76642       -4.67635
F          3.57100        1.13008       -3.57581
F          2.35053       -2.06007       -2.78896
F          1.41516       -0.06604       -2.68553
F          3.85184       -1.68313       -0.70811
F          1.72698       -1.24230       -0.29221
C          3.56789        0.72199        1.26535
C          4.64488       -0.16984        1.93535
C          5.93033       -0.03922        1.12410
N          6.10264        1.36683        0.71664
C          5.25502        2.37341        0.99844
N          5.67401        3.64509        0.82999
N          4.01732        2.10502        1.44413
C          3.10386        3.07016        2.06473
C          3.01382        2.88648        3.59185
O          2.05852        3.78923        4.08311
Si         0.57771        3.30476        4.75763
C         -0.25487        2.08978        3.58150
C          0.90278        2.48248        6.41202
C         -0.38459        4.89503        4.92625
C          4.23188       -1.59971        2.33922
C          3.14516       -1.55016        3.39414
C          3.46153       -1.19971        4.71704
C          2.46295       -1.09275        5.68590
C          1.12736       -1.32910        5.34545
C          0.80083       -1.68592        4.03607
C          1.80391       -1.79631        3.06760
H          5.12569       -1.83233       -4.45754
H          2.62275        0.59253        1.81961
H          4.81668        0.34961        2.89258
H          5.91714       -0.65683        0.21567
H          6.79704       -0.33970        1.73117
H          6.84079        1.56128        0.04714
H          6.64741        3.83334        0.62699
H          5.00844        4.38113        0.63026
H          2.11237        2.93897        1.60946
H          3.41551        4.09885        1.85070
H          3.99935        3.10006        4.04304
H          2.77446        1.83195        3.83130
H          0.32868        1.16656        3.45261
H         -0.43010        2.54019        2.59402
H         -1.23388        1.79012        3.98306
H          1.53255        1.58939        6.30031
H         -0.04104        2.16502        6.87839
H          1.40400        3.17474        7.10220
H         -0.56967        5.35497        3.94597
H          0.16178        5.61889        5.54606
H         -1.35786        4.71125        5.40290
H          5.12551       -2.09660        2.74861
H          3.91035       -2.19790        1.48060
H          4.50368       -1.02863        4.99951
H          2.72859       -0.83656        6.71226
H          0.34727       -1.24544        6.10245
H         -0.23647       -1.88539        3.76535
H          1.54052       -2.09293        2.05135
