66

N          2.07985        1.87425       -2.53820
C          2.95129        1.25506       -1.53554
C          3.97051        2.27121       -1.01602
C          4.82992        1.72894        0.12859
C          5.82223        2.76605        0.66524
C          6.49660        2.28819        1.95485
N          7.45066        3.26563        2.53004
C          7.05322        4.45666        3.00608
N          5.77988        4.66811        3.44494
C          5.08559        3.88416        4.49318
C          5.54003        4.35405        5.88167
O          6.96798        4.31715        5.91902
C          3.56621        4.01672        4.33383
C          2.99467        3.41207        3.05126
N          7.88166        5.51785        2.97941
C          8.88332        3.00265        2.31688
C          9.35820        3.25496        0.87204
C         10.89266        3.30219        0.77460
P         11.74250        4.88347        1.12865
O         13.05726        4.75141        1.77956
O         11.85573        5.69915       -0.24724
C         10.72188        6.06560       -1.08033
C         11.18323        7.11850       -2.06727
O         10.62305        5.70399        2.00899
C         11.10492        6.92536        2.68183
C         11.33318        6.66915        4.15829
H          1.32498        1.24058       -2.80114
H          2.59885        2.07449       -3.39500
H          3.48719        0.35083       -1.89210
H          2.31241        0.92828       -0.69868
H          3.42356        3.16919       -0.68485
H          4.62087        2.59591       -1.84764
H          5.37640        0.82886       -0.20122
H          4.16861        1.39797        0.94787
H          5.29379        3.71076        0.86559
H          6.58335        2.98985       -0.09786
H          7.07735        1.37364        1.77459
H          5.73492        2.02144        2.69766
H          5.53157        5.65609        3.45973
H          5.39195        2.83543        4.38035
H          5.09733        3.68555        6.63874
H          5.16518        5.37846        6.07116
H          7.25870        4.38410        6.84124
H          3.29817        5.08591        4.39679
H          3.09731        3.54317        5.20996
H          3.42471        3.87628        2.15410
H          1.90856        3.56023        3.00737
H          3.17944        2.32991        2.99903
H          8.79954        5.48702        2.51940
H          7.77020        6.21393        3.70807
H          9.06221        1.95301        2.59152
H          9.45162        3.61290        3.02971
H          8.90916        4.18384        0.49104
H          8.98427        2.45025        0.22269
H         11.22627        3.02581       -0.23657
H         11.35600        2.56955        1.45265
H          9.90912        6.44632       -0.43961
H         10.36318        5.16342       -1.60371
H         11.52092        8.02322       -1.54558
H         10.35483        7.39181       -2.73524
H         12.01140        6.74100       -2.68018
H         10.32793        7.68229        2.50148
H         12.02871        7.26025        2.19031
H         10.41992        6.31201        4.65569
H         11.64331        7.60202        4.64961
H         12.12659        5.92553        4.30103
