74

C         11.66982       -4.18052       -0.31782
C         10.49197       -3.27257       -0.68013
C         10.92754       -1.87409       -1.13047
C          9.75776       -0.95391       -1.49827
C         10.22039        0.43788       -1.94754
C          9.06879        1.35178       -2.32777
O          9.62383        2.62911       -2.71406
C          8.66145        3.52025       -3.24675
C          9.40437        4.68224       -3.82385
N         10.37951        4.59727       -4.75856
C         10.84194        5.86404       -5.04987
C         10.14433        6.73459       -4.26518
N          9.25888        5.98742       -3.51226
C          8.38577        6.55056       -2.46117
C          9.04112        6.50794       -1.07840
C          8.12979        7.10136        0.00180
C          8.76613        7.08091        1.39601
C          7.85226        7.65139        2.48660
C          8.49246        7.63583        3.87627
C         10.80156        3.37397       -5.43341
C          9.78557        2.95482       -6.50961
O          8.71101        3.49645       -6.66611
O         10.27920        1.91407       -7.18062
C          9.45886        1.35957       -8.27260
C          9.88166        1.94578       -9.60928
C          9.13210        1.29152      -10.77805
C          9.60992        1.79431      -12.14494
C          8.87857        1.14472      -13.32463
C          9.39174        1.62310      -14.68496
H         11.32626       -5.17106        0.00860
H         12.26959       -3.75174        0.49864
H         12.34036       -4.32875       -1.17738
H          9.81582       -3.18081        0.18636
H          9.89571       -3.74279       -1.48013
H         11.60606       -1.96504       -1.99693
H         11.52299       -1.40256       -0.32934
H          9.08165       -0.85742       -0.63160
H          9.16161       -1.42357       -2.29975
H         10.89744        0.34248       -2.81288
H         10.80238        0.91764       -1.14436
H          8.37284        1.49712       -1.48077
H          8.48969        0.93661       -3.17456
H          7.95292        3.87515       -2.47681
H          8.06203        3.04277       -4.04696
H         11.61994        6.03861       -5.78298
H         10.20265        7.81252       -4.17920
H          7.43531        6.00183       -2.47822
H          8.16318        7.58163       -2.76621
H          9.99431        7.05971       -1.11512
H          9.29498        5.46482       -0.82736
H          7.17693        6.54472        0.02553
H          7.86933        8.13976       -0.26587
H          9.71121        7.65077        1.37491
H          9.04315        6.04445        1.65681
H          6.91032        7.07791        2.50620
H          7.57142        8.68439        2.22069
H          8.75617        6.61364        4.18600
H          7.81133        8.04598        4.63329
H          9.41363        8.23687        3.89922
H         10.90128        2.57544       -4.68654
H         11.78511        3.54378       -5.88629
H          8.40382        1.55915       -8.04531
H          9.65223        0.28071       -8.22114
H         10.96659        1.80154       -9.73516
H          9.69635        3.03208       -9.60674
H          8.04942        1.47683      -10.67394
H          9.26172        0.19647      -10.73026
H         10.69367        1.60594      -12.24085
H          9.48726        2.89038      -12.19707
H          7.79815        1.35125      -13.24210
H          8.98298        0.04869      -13.25604
H          9.26210        2.70889      -14.80335
H          8.85596        1.13414      -15.50948
H         10.46228        1.40186      -14.80828
