69

C          0.84829        0.02724        0.43472
C          2.37067        0.07175        0.28993
C          2.87486        1.32760       -0.42817
C          4.39842        1.37574       -0.56971
C          4.92367        2.64771       -1.24220
C          6.45019        2.67372       -1.35831
C          7.01398        3.94989       -1.99034
C          8.54461        3.95350       -2.04581
C          9.14873        5.22684       -2.64553
C         10.68066        5.21706       -2.62824
C         11.31099        6.49942       -3.18396
C         12.84079        6.47973       -3.09015
C         13.55598        7.68641       -3.73223
P         13.16247        9.31770       -3.03792
C         13.47650        9.45867       -1.15709
C         14.92121        9.19751       -0.67208
F         15.26724        7.92380       -1.01323
F         15.75267       10.06355       -1.31823
F         13.11571       10.72817       -0.81335
F         12.63379        8.58728       -0.53802
C         13.91381       10.71148       -3.91825
C         13.53446       10.86946       -5.42822
C         12.02056       11.11568       -5.63799
N         11.56901       11.33901       -6.98742
C         11.73909       10.24209       -7.93875
C         11.19060       10.65623       -9.29570
O         11.96952       11.77697       -9.72992
O         14.34053       11.90215       -5.95750
H          0.51978       -0.88013        0.95981
H          0.35411        0.04078       -0.54804
H          0.47763        0.89332        1.00304
H          2.71674       -0.82182       -0.25658
H          2.83831        0.01562        1.28757
H          2.52980        2.22202        0.12021
H          2.41049        1.38778       -1.42827
H          4.73918        0.49453       -1.14129
H          4.85758        1.28191        0.43037
H          4.58513        3.52920       -0.66969
H          4.47508        2.74664       -2.24618
H          6.78528        1.80001       -1.94428
H          6.88894        2.54785       -0.35264
H          6.66667        4.82697       -1.41633
H          6.60573        4.07058       -3.00894
H          8.89062        3.07960       -2.62455
H          8.94052        3.81534       -1.02435
H          8.78264        6.10403       -2.08318
H          8.79032        5.35512       -3.68162
H         11.05118        4.35249       -3.20478
H         11.02955        5.06527       -1.59227
H         10.89980        7.35725       -2.62246
H         11.00326        6.63772       -4.23533
H         13.22835        5.59266       -3.61482
H         13.15885        6.37328       -2.04299
H         13.28948        7.78108       -4.79964
H         14.65203        7.59121       -3.68108
H         11.76128        9.49059       -3.01782
H         15.00588        9.33290        0.41853
H         15.00484       10.60238       -3.82965
H         13.62194       11.61532       -3.35772
H         13.84885        9.96309       -5.96976
H         11.73008       11.98986       -5.02410
H         11.46028       10.25087       -5.22977
H         11.95818       12.19374       -7.38800
H         11.17197        9.36685       -7.57928
H         12.79539        9.93152       -8.07626
H         10.12601       10.92934       -9.19595
H         11.27901        9.81072       -9.99999
H         11.58149       12.13220      -10.54368
H         13.94989       12.76663       -5.73870
