61

C          1.62880        1.26927        2.70742
C          2.95788        1.02021        1.98940
C          3.61878       -0.30500        2.38544
C          4.93175       -0.58281        1.64448
C          5.61321       -1.87602        2.10836
C          6.90030       -2.17011        1.35720
O          7.48745       -3.36127        1.91324
C          8.67922       -3.75300        1.28177
C          9.22581       -4.98036        2.02004
C         10.62172       -5.36573        1.48610
N         10.37225       -6.57396        0.65422
C          9.19772       -7.06762        0.86107
C          8.39549       -6.29863        1.84386
C          6.89134       -6.20554        1.45279
C          6.31233       -7.53135        1.29814
C          5.87927       -8.65410        1.17289
C         11.40315       -7.12455       -0.24375
C         12.66900       -7.56601        0.49941
C         13.69823       -8.16499       -0.46899
C         15.02206       -8.51210        0.22156
C         16.07380       -9.07911       -0.73795
C         17.41493       -9.37903       -0.05822
C         18.46858       -9.92859       -1.02266
H          1.19094        2.23373        2.41770
H          1.75994        1.27957        3.79970
H          0.89313        0.48625        2.47078
H          3.65418        1.84873        2.20308
H          2.79623        1.03510        0.89826
H          2.91418       -1.13500        2.20112
H          3.80742       -0.30574        3.47332
H          5.62009        0.26738        1.78996
H          4.73449       -0.63321        0.55968
H          4.92553       -2.72852        1.98334
H          5.84266       -1.81144        3.18405
H          7.61847       -1.33325        1.45259
H          6.70607       -2.32433        0.27774
H          9.44039       -2.94716        1.33229
H          8.51785       -3.97057        0.20184
H          9.27992       -4.72111        3.08453
H         11.32993       -5.63812        2.28126
H         11.09140       -4.59372        0.86010
H          8.86410       -7.97060        0.34395
H          8.42793       -6.88081        2.78561
H          6.77197       -5.62897        0.52293
H          6.36861       -5.63521        2.23270
H          5.45326       -9.63138        1.07127
H         11.63971       -6.33456       -0.97400
H         10.94506       -7.96336       -0.78512
H         12.39960       -8.30199        1.27443
H         13.11968       -6.70353        1.01572
H         13.89107       -7.44804       -1.28564
H         13.27747       -9.06709       -0.94445
H         14.83505       -9.23603        1.03340
H         15.42414       -7.60595        0.70745
H         16.23668       -8.36456       -1.56391
H         15.68599      -10.00039       -1.20653
H         17.25348      -10.09751        0.76297
H         17.79321       -8.45763        0.41602
H         18.13683      -10.87010       -1.48449
H         19.41685      -10.12888       -0.50663
H         18.67698       -9.21678       -1.83500
