67

C          6.80988        2.30569        6.49707
C          6.46999        1.05249        5.68722
C          6.12956       -0.15925        6.56154
C          5.84839       -1.43431        5.76083
C          5.61537       -2.66077        6.65056
C          5.39095       -3.96564        5.89574
O          6.41139       -4.20524        4.85598
C          7.63348       -4.53717        5.25905
O          8.00671       -4.69205        6.41097
C          8.57850       -4.70465        4.07774
P         10.28004       -4.30090        4.62529
Si        10.61055       -2.13230        5.43856
C         12.47942       -2.01683        5.48842
C          9.82401       -1.08351        4.10003
C          9.78946       -1.98073        7.10601
C         10.97823       -5.68870        5.61875
O         10.96486       -6.80012        4.75770
C         11.30387       -8.05373        5.29171
C         11.69792       -8.20241        6.62247
C         12.03168       -9.46420        7.13613
C         12.44747       -9.62523        8.57505
C         11.95725      -10.56163        6.27184
C         11.57124      -10.39096        4.94294
C         11.23541       -9.14237        4.40245
C         10.85895       -9.04441        2.92998
C          9.42225       -8.54586        2.68633
C         11.88743       -8.24961        2.10273
H          7.05132        3.15425        5.84327
H          7.67471        2.13567        7.15623
H          5.96698        2.60918        7.13461
H          7.31922        0.79746        5.02857
H          5.62410        1.26476        5.01292
H          5.25719        0.07808        7.19407
H          6.96171       -0.34440        7.26449
H          6.70090       -1.62585        5.08553
H          4.97916       -1.27920        5.09976
H          4.71762       -2.50875        7.27233
H          6.45089       -2.78435        7.35577
H          4.46264       -3.94884        5.31291
H          5.38661       -4.83008        6.57229
H          8.30586       -4.06977        3.22471
H          8.57228       -5.75255        3.73676
H         11.03003       -4.37691        3.42332
H         12.93820       -2.21481        4.51051
H         12.91576       -2.70013        6.22934
H         12.75608       -0.99318        5.78312
H         10.29483       -1.23329        3.11927
H          9.95462       -0.02492        4.37232
H          8.74485       -1.26554        4.01063
H         10.16231       -2.72629        7.81925
H          8.70163       -2.08673        7.03361
H         10.01288       -0.98086        7.50802
H         10.34056       -5.80806        6.51086
H         11.99782       -5.39230        5.93218
H         11.76306       -7.33925        7.28583
H         12.62241       -8.65570        9.05875
H         13.36926      -10.21729        8.65792
H         11.67300      -10.15187        9.15249
H         12.21093      -11.55819        6.63613
H         11.53009      -11.26126        4.28445
H         10.89243      -10.08229        2.56085
H          9.33048       -7.47351        2.90928
H          8.69751       -9.08834        3.30777
H          9.14330       -8.68834        1.63297
H         11.89959       -7.18673        2.38304
H         11.64794       -8.31334        1.03181
H         12.90065       -8.64742        2.24624
