77

C          9.37455        3.71558        8.04813
C          8.63508        3.52856        6.73738
O          7.85170        2.29463        6.72285
P          8.49230        0.88683        6.30000
O          9.87911        0.99927        5.76380
O          8.33451       -0.08681        7.56148
C          9.29179       -0.05925        8.66370
C          9.28253       -1.41712        9.33363
C          7.23170        0.18781        5.19413
C          7.35067       -1.32263        4.89559
C          7.98755       -1.71494        3.55667
N          9.36127       -1.25466        3.27730
C         10.44216       -1.25028        4.07518
N         11.53928       -0.57623        3.72162
C         11.69686        0.38989        2.63245
C         11.28578        1.83511        2.95750
C         12.00998        2.52375        4.12479
C         13.54030        2.66617        3.99602
S         14.39207        1.46214        5.04583
O         14.12323        1.74409        6.43606
O         14.17907        0.11496        4.53479
Cl        16.36834        1.92478        4.66485
N         10.42951       -1.92124        5.26353
C         10.25640       -3.37099        5.35915
O         11.48519       -4.05262        5.15854
C         12.02109       -4.70661        6.28352
C         11.53343       -5.98299        6.58050
C         12.04175       -6.71501        7.65806
C         11.54144       -8.10188        7.96818
C         13.05802       -6.12089        8.42379
C         13.54634       -4.85564        8.11095
C         13.04803       -4.10788        7.02975
C         13.57379       -2.71587        6.71624
C         12.98403       -1.67883        7.69423
C         15.10859       -2.64003        6.69831
H          9.84749        4.70789        8.06532
H         10.16619        2.96462        8.17253
H          8.68536        3.65446        8.90039
H          9.32861        3.51390        5.88450
H          7.89189        4.31950        6.57776
H          8.98152        0.73572        9.35803
H         10.28611        0.19219        8.26456
H          8.28212       -1.66395        9.71124
H          9.98046       -1.41781       10.18178
H          9.59601       -2.20766        8.63751
H          7.25478        0.79585        4.27637
H          6.26767        0.39968        5.67764
H          6.33731       -1.74758        4.84879
H          7.84349       -1.83181        5.73256
H          7.38741       -1.29573        2.73697
H          7.93226       -2.80935        3.44675
H          9.50587       -0.87299        2.34945
H         12.37176       -0.70750        4.29843
H         11.15115        0.04389        1.74062
H         12.75784        0.33622        2.35459
H         10.21114        1.86136        3.18836
H         11.42804        2.41574        2.03152
H         11.73269        2.03179        5.06772
H         11.60528        3.54220        4.21064
H         13.90092        3.63525        4.36358
H         13.92783        2.51140        2.97958
H         11.07501       -1.53422        5.95064
H          9.55314       -3.68906        4.57883
H          9.84432       -3.60947        6.34999
H         10.75950       -6.40933        5.93917
H         10.65311       -8.35362        7.37554
H         11.28395       -8.20573        9.03138
H         12.31321       -8.85488        7.74888
H         13.47971       -6.66422        9.27152
H         14.34391       -4.43355        8.72455
H         13.23223       -2.47315        5.69764
H         13.35662       -1.85152        8.71451
H         11.88699       -1.75249        7.76063
H         13.25575       -0.65277        7.40935
H         15.53928       -2.81730        7.69393
H         15.43558       -1.64453        6.37090
H         15.53246       -3.38315        6.01044
