74

C          1.13489        0.30064       -0.24822
C          2.57123       -0.05700        0.13897
C          2.95609        0.42261        1.54436
C          4.40174        0.07951        1.92172
C          4.80908        0.63766        3.27589
O          6.18763        0.30080        3.50510
C          6.79088        0.99638        4.57645
C          8.32590        0.78478        4.52350
C          8.99578        1.81624        5.45641
C         10.52926        1.84303        5.45638
C         11.05561        2.98963        6.32321
S         12.86303        3.08872        6.37032
C         13.28064        1.91618        7.67833
S         12.10968        1.02564        8.47206
N         14.61137        1.85804        7.92970
C         15.60240        2.59518        7.13347
C         16.27728        1.74414        6.05070
C         17.27372        2.55926        5.21911
C         18.01965        1.71639        4.18219
C         15.14176        0.91140        8.93114
C         16.18974        1.51602        9.86779
C         16.50622        0.57512       11.03816
C         17.61739        1.11070       11.94457
C          8.75068       -0.65551        4.86121
C          8.31241       -1.67150        3.80734
N          8.69624       -1.18946        2.47080
C          8.78754        0.12186        2.16143
N          8.95695        0.51387        0.88737
N          8.78298        1.03956        3.14018
Br         8.50186       -2.43905        1.08825
H          0.89464       -0.04943       -1.26090
H          0.97340        1.38846       -0.22643
H          0.40901       -0.15513        0.44081
H          3.27033        0.38094       -0.59394
H          2.71152       -1.14921        0.07634
H          2.26498       -0.01755        2.28330
H          2.80962        1.51520        1.60513
H          5.09020        0.48353        1.15986
H          4.54223       -1.01413        1.92450
H          4.18241        0.22628        4.08877
H          4.69842        1.73896        3.29336
H          6.41261        0.65046        5.55864
H          6.57346        2.08027        4.50006
H          8.63247        1.62548        6.47868
H          8.60947        2.81526        5.18491
H         10.92104        1.94958        4.43234
H         10.93375        0.90767        5.86824
H         10.70917        2.88713        7.36244
H         10.74545        3.97191        5.93417
H         16.35761        2.99653        7.82376
H         15.11563        3.47221        6.68571
H         15.50269        1.31178        5.39615
H         16.80017        0.89536        6.52185
H         18.00234        3.04135        5.89253
H         16.73769        3.38101        4.71492
H         18.61444        0.92627        4.66330
H         18.70722        2.33242        3.58740
H         17.32260        1.22813        3.48519
H         15.55616        0.03380        8.40446
H         14.27606        0.56007        9.50465
H         15.81729        2.47757       10.25932
H         17.12589        1.73422        9.32768
H         16.79582       -0.41420       10.64547
H         15.58917        0.41192       11.62735
H         18.56535        1.21517       11.39606
H         17.79864        0.43765       12.79312
H         17.35988        2.09914       12.35303
H          8.31608       -0.95102        5.82559
H          9.84251       -0.69080        4.97128
H          7.22597       -1.83527        3.82293
H          8.82780       -2.62701        3.96841
H          9.05691       -0.17764        0.15295
H          9.10502        1.48718        0.65696
H          8.86446        2.01087        2.85428
