89

C          1.99804       -2.09726       -1.51769
C          3.37358       -1.46476       -1.29437
C          3.30855       -0.14840       -0.51131
C          4.68199        0.49982       -0.29746
C          4.58777        1.77834        0.51590
O          5.89701        2.35941        0.64253
C          5.88533        3.53495        1.41483
C          7.31754        4.07570        1.40851
C          7.50763        5.33499        2.24738
C          6.78265        6.63749        1.77486
C          5.70803        7.12390        2.76634
C          4.54038        6.17968        3.02589
O          3.78285        6.75858        4.07892
C          2.78026        5.91823        4.61126
C          2.68288        6.11019        6.12746
C          3.80228        5.47220        7.03170
C          5.29826        5.95928        6.98223
C          5.57583        7.46000        7.30379
F          6.91627        7.58873        7.53926
F          5.26848        8.23527        6.22918
F          5.95146        5.22202        7.92100
F          5.85016        5.64155        5.76535
F          3.40922        5.63783        8.32601
F          3.83130        4.13464        6.75205
F          2.58770        7.43450        6.44818
F          1.52340        5.49915        6.52732
C          7.89999        7.70561        1.65251
C          8.95270        7.23537        2.64303
N          9.01632        5.74346        2.37458
C          9.94071        5.42730        1.20670
C         10.60287        4.05467        1.35027
C         11.96111        3.91095        0.63850
C         11.96471        3.40575       -0.85752
C         11.25692        4.23279       -2.00340
C         11.68552        5.70823       -2.37838
C         13.16293        6.07182       -2.81202
C         13.84469        5.40829       -4.07662
C         13.22937        5.56269       -5.52691
C         13.00756        7.00748       -6.11133
F         14.10993        7.76047       -5.96810
F         12.71819        6.89575       -7.41678
F         11.97584        7.61852       -5.49662
F         14.10123        4.92855       -6.34851
F         12.03964        4.90817       -5.56919
F         15.09957        5.91985       -4.10555
F         13.93100        4.07214       -3.84505
F         13.16341        7.41763       -2.99494
F         13.97173        5.78920       -1.75824
F         10.83855        6.09636       -3.35922
F         11.42685        6.48941       -1.28045
F         11.32136        3.47975       -3.11835
F          9.92947        4.33614       -1.64327
F         13.24654        3.18602       -1.21726
F         11.30591        2.20777       -0.84414
F         12.68179        5.07038        0.72730
F         12.66163        2.95031        1.31447
H          2.07619       -3.03719       -2.08003
H          1.33624       -1.42593       -2.08473
H          1.50077       -2.32267       -0.56270
H          3.86059       -1.28395       -2.26722
H          4.02499       -2.17373       -0.75669
H          2.83049       -0.33358        0.46669
H          2.64699        0.55766       -1.04313
H          5.14696        0.72936       -1.26964
H          5.35594       -0.20286        0.21838
H          4.18007        1.57176        1.52513
H          3.91263        2.50799        0.02636
H          5.55521        3.32091        2.45278
H          5.17755        4.27403        0.98858
H          7.59936        4.25348        0.35911
H          7.95195        3.26345        1.79316
H          7.22794        5.12525        3.29186
H          6.32896        6.45772        0.78933
H          5.30336        8.07677        2.39499
H          6.17249        7.34547        3.74072
H          4.88826        5.17809        3.33844
H          3.92161        6.05139        2.11662
H          2.97919        4.85136        4.41450
H          1.78541        6.16734        4.20312
H          5.01547        7.80392        8.18639
H          7.54078        8.71082        1.90176
H          8.31486        7.75208        0.63588
H          8.62309        7.36265        3.68326
H          9.95108        7.67060        2.52740
H          9.39945        5.26488        3.19902
H         10.70940        6.20743        1.21722
H          9.36694        5.52694        0.28273
H          9.95635        3.23308        1.02218
H         10.84916        3.87173        2.40927
