76

Br         2.61630       -2.07352       -3.15613
C          4.00171       -1.12501       -2.14626
C          3.87769        0.38307       -2.31683
C          4.87049        1.11153       -1.39269
C          4.96892        2.63447       -1.55103
C          3.63236        3.35347       -1.31307
C          3.71647        4.87888       -1.43929
C          4.36963        5.28806       -2.76546
C          5.71853        4.59371       -2.98439
N          5.47292        3.07397       -2.93893
C          6.60604        2.28026       -3.56262
C          6.58896        2.43618       -5.08086
C          7.44594        1.34342       -5.73161
S          7.11448        1.14054       -7.49801
C          5.58821        0.19114       -7.48348
S          4.80596       -0.27172       -6.07129
N          5.14012       -0.11068       -8.72109
C          3.87031       -0.83634       -8.91080
C          4.05362       -2.35249       -8.98129
C          5.86460        0.23639       -9.95604
C          5.42168        1.56586      -10.57306
C          6.80811        5.04873       -1.99272
C          7.64234        6.22009       -2.55994
P          9.12466        5.61503       -3.43519
O          8.87500        4.41428       -4.27140
O          9.70710        6.80925       -4.31980
C         10.24781        8.04790       -3.75961
C         11.61270        8.30922       -4.36260
O         10.10864        5.41111       -2.18097
C         11.38122        4.70351       -2.34446
C         12.11614        4.76209       -1.02296
H          4.95645       -1.50591       -2.52750
H          3.87311       -1.43781       -1.10362
H          2.84679        0.68721       -2.08673
H          4.05448        0.62511       -3.37870
H          5.87195        0.66358       -1.47726
H          4.57672        0.94782       -0.34340
H          5.72901        3.00088       -0.84625
H          3.26900        3.06765       -0.31594
H          2.88882        2.96510       -2.03011
H          4.27810        5.29397       -0.58872
H          2.70908        5.31067       -1.37411
H          4.52607        6.37546       -2.80782
H          3.69913        5.04600       -3.60772
H          6.07241        4.77021       -4.00789
H          4.67735        2.91310       -3.57721
H          6.43600        1.23015       -3.30572
H          7.55219        2.62005       -3.12527
H          6.96869        3.41952       -5.38325
H          5.55319        2.30555       -5.43557
H          7.27040        0.36546       -5.25964
H          8.51535        1.59184       -5.67796
H          3.42433       -0.45415       -9.84084
H          3.21014       -0.56749       -8.07702
H          4.72591       -2.64489       -9.79979
H          3.08208       -2.83260       -9.15880
H          4.45998       -2.73825       -8.03810
H          5.69680       -0.58908      -10.66277
H          6.94285        0.24215       -9.74195
H          4.34907        1.56107      -10.80902
H          5.96957        1.74051      -11.50873
H          5.62394        2.40565       -9.89645
H          7.48066        4.21726       -1.73774
H          6.34487        5.36158       -1.04830
H          7.96643        6.89248       -1.75479
H          7.05917        6.82808       -3.26741
H         10.30487        7.96521       -2.66376
H          9.53383        8.84361       -4.01697
H         12.33086        7.52991       -4.07544
H         11.99628        9.27581       -4.00735
H         11.55526        8.34355       -5.45781
H         11.95485        5.18812       -3.14912
H         11.16243        3.67112       -2.65292
H         12.32585        5.79980       -0.73146
H         13.07326        4.23023       -1.10814
H         11.53117        4.28686       -0.22451
