88

C          1.19177        5.37498      -10.60885
C          2.69279        5.67583      -10.59762
C          3.30149        5.67132       -9.19106
C          4.80384        5.97179       -9.16528
C          5.40907        5.91742       -7.75930
C          6.90886        6.22969       -7.71065
C          7.49795        6.09023       -6.30373
C          8.98832        6.43375       -6.20211
C          9.53620        6.22205       -4.78753
C         11.00897        6.60829       -4.60921
C         11.47063        6.37180       -3.16754
C         12.92437        6.73984       -2.86499
N         13.26719        8.14496       -3.20391
N         14.38669        8.47904       -3.89607
C         15.37250        7.55472       -4.47947
O         14.77091        6.95031       -5.57739
C         15.72486        6.24923       -6.42960
C         15.06645        5.97732       -7.76910
C         15.99266        5.19122       -8.70955
C         15.45599        5.10018      -10.14319
C         16.34859        4.26997      -11.07241
C         15.91111        4.31319      -12.54044
C         16.77086        3.44124      -13.46211
C         16.40988        3.57500      -14.94524
C         17.23699        2.66917      -15.86464
C         16.90544        2.84650      -17.34849
N         14.46228        9.78191       -4.04066
N         13.42248       10.31901       -3.44155
C         12.67291        9.32437       -2.91772
C         11.44676        9.58130       -2.11903
C         11.55802        9.06909       -0.65047
O         12.90800        9.17670       -0.19057
C         10.56027        9.77806        0.25325
H          0.78654        5.38247      -11.62986
H          0.63046        6.11856      -10.02355
H          0.97941        4.38637      -10.17502
H          2.87639        6.65602      -11.06961
H          3.22207        4.93686      -11.22290
H          3.11889        4.68877       -8.72049
H          2.77094        6.40787       -8.56179
H          4.98565        6.96779       -9.60617
H          5.33140        5.25279       -9.81652
H          5.23461        4.91487       -7.33017
H          4.87059        6.62242       -7.10163
H          7.08396        7.25316       -8.08613
H          7.44723        5.55713       -8.40116
H          7.34085        5.05650       -5.94893
H          6.93235        6.73467       -5.60755
H          9.14755        7.48234       -6.50913
H          9.56176        5.81677       -6.91538
H          9.40241        5.16470       -4.50116
H          8.92507        6.80378       -4.07398
H         11.14108        7.66852       -4.88778
H         11.64432        6.03414       -5.30385
H         11.39191        5.30127       -2.91994
H         10.79313        6.87751       -2.46381
H         13.59632        6.11668       -3.46583
H         13.17212        6.61019       -1.80160
H         15.68830        6.84656       -3.68894
H         16.22328        8.20634       -4.74394
H         16.03473        5.31566       -5.92676
H         16.61876        6.88653       -6.55585
H         14.79275        6.94078       -8.22759
H         14.12870        5.42169       -7.60860
H         16.15168        4.17628       -8.30706
H         16.98747        5.66914       -8.73262
H         15.35340        6.12091      -10.55145
H         14.43768        4.67428      -10.13252
H         16.36691        3.22300      -10.72243
H         17.38926        4.63138      -10.99675
H         15.94239        5.35879      -12.89441
H         14.85552        3.99950      -12.62108
H         16.67791        2.38458      -13.15515
H         17.83496        3.70218      -13.32361
H         16.54084        4.62649      -15.25697
H         15.33711        3.35205      -15.08462
H         17.07914        1.61682      -15.57357
H         18.30966        2.86884      -15.70089
H         15.84632        2.62759      -17.55103
H         17.50774        2.17793      -17.97870
H         17.09784        3.87764      -17.68046
H         10.56290        9.14749       -2.61141
H         11.32231       10.67338       -2.13172
H         11.34727        7.98786       -0.63698
H         13.04088       10.05507        0.20320
H         10.76535       10.85949        0.29232
H         10.61833        9.37298        1.27117
H          9.53107        9.64767       -0.10908
