67

C          5.23072       -0.55821       -1.73964
C          4.79121        0.08789       -0.42346
C          5.17939        1.56706       -0.32812
C          4.73111        2.25947        0.96492
N          5.32318        1.68741        2.17938
C          6.54295        2.05803        2.63632
O          7.25436        2.89661        2.08491
C          6.97884        1.38324        3.96300
C          8.47751        1.30931        4.07111
C          9.13741        0.09286        3.85021
C         10.53313       -0.02710        3.85695
C         11.25810       -1.32377        3.61006
C         11.84418       -1.97145        4.89948
C         13.26255       -2.53642        4.68855
P         14.51081       -1.20826        4.74362
O         14.11694        0.03986        4.03629
O         14.77825       -0.86166        6.29174
C         15.33188       -1.83127        7.23023
C         14.32358       -2.13127        8.32348
O         15.80141       -1.97713        4.19285
C         17.06145       -1.25543        3.98535
C         17.98547       -2.15070        3.18840
C         11.26167        1.13696        4.09474
N         10.61003        2.29446        4.31306
C          9.26012        2.44967        4.32000
C          8.73464        3.83816        4.57776
C          9.61267        4.73953        5.46652
O         10.94883        4.87758        4.90797
C          8.97466        6.10011        5.70052
H          4.94325       -1.61713       -1.78323
H          6.32183       -0.50238       -1.86664
H          4.77259       -0.05439       -2.60301
H          5.23878       -0.46686        0.41921
H          3.69797       -0.01155       -0.30979
H          4.73182        2.12206       -1.16898
H          6.27033        1.68142       -0.43148
H          3.63906        2.19917        1.08022
H          5.01024        3.32115        0.93820
H          4.82077        0.95239        2.66377
H          6.55034        0.37543        4.05103
H          6.54969        1.97980        4.78398
H          8.53459       -0.79689        3.65000
H         12.08144       -1.11370        2.91346
H         10.58418       -2.03188        3.10864
H         11.17766       -2.77740        5.23672
H         11.86125       -1.23418        5.71673
H         13.35087       -3.04687        3.71863
H         13.51167       -3.28200        5.45726
H         16.23987       -1.36756        7.64138
H         15.63697       -2.74216        6.69158
H         14.03784       -1.21310        8.85319
H         14.76105       -2.82631        9.05391
H         13.41393       -2.59468        7.91629
H         17.48394       -1.01153        4.97259
H         16.84066       -0.31713        3.45609
H         18.18078       -3.09143        3.71961
H         18.94579       -1.64042        3.03137
H         17.55575       -2.38428        2.20573
H         12.35723        1.14696        4.11334
H         11.14130        3.17800        4.47013
H          7.73959        3.75809        5.03849
H          8.55804        4.31879        3.60050
H          9.78853        4.24166        6.43381
H         10.92642        5.55454        4.20953
H          8.79569        6.62254        4.74773
H          9.62642        6.72279        6.32574
H          8.00707        6.00024        6.21084
