58

C          2.46008        1.62998       -1.79873
C          3.51214        1.01348       -0.87527
C          4.03628       -0.33713       -1.37445
C          5.08115       -0.95418       -0.43957
C          5.58492       -2.32591       -0.91175
C          6.57788       -2.89875        0.08312
O          6.99080       -4.27327       -0.28777
C          8.11005       -4.41048       -0.97890
O          8.86755       -3.53089       -1.35835
C          8.39398       -5.88525       -1.28648
N          9.80480       -5.96686       -1.79738
C         10.82983       -5.95172       -0.66490
C         10.80489       -7.29303        0.09219
O         10.02970       -8.19782       -0.15826
O         11.72928       -7.28384        1.05072
C         11.82891       -8.49186        1.89918
C         10.88697       -8.40833        3.08236
C         12.21095       -5.53098       -1.16418
C         10.02362       -7.02776       -2.85984
C          9.37793       -6.59395       -4.16789
O          9.76872       -5.25413       -4.40231
C          9.26271       -4.71504       -5.64342
C          9.69136       -3.26321       -5.74760
O         11.09589       -3.10578       -5.90031
H          2.09752        2.58899       -1.40487
H          1.58996        0.96650       -1.91138
H          2.86898        1.81644       -2.80284
H          3.08624        0.88244        0.13386
H          4.35868        1.71105       -0.75932
H          4.47098       -0.21230       -2.38158
H          3.19029       -1.03665       -1.49027
H          4.64699       -1.05435        0.56985
H          5.93506       -0.26308       -0.33948
H          6.06282       -2.23014       -1.89970
H          4.73631       -3.01921       -1.02084
H          6.12724       -3.03213        1.07423
H          7.48343       -2.28457        0.16386
H          7.70919       -6.23093       -2.07173
H          8.27158       -6.53946       -0.41819
H          9.93243       -5.04874       -2.28320
H         10.46482       -5.17601        0.02582
H         12.88056       -8.49217        2.20753
H         11.62508       -9.36429        1.26649
H         11.08357       -7.51397        3.68683
H          9.83750       -8.40879        2.76263
H         11.04269       -9.28877        3.72064
H         12.67941       -6.28446       -1.80938
H         12.86337       -5.38840       -0.29599
H         12.15322       -4.57649       -1.70430
H          9.63371       -7.97973       -2.48821
H         11.10802       -7.11038       -2.99298
H          8.27359       -6.68037       -4.13678
H          9.73197       -7.27535       -4.96369
H          8.15931       -4.78916       -5.65623
H          9.67349       -5.29907       -6.48500
H          9.31012       -2.70004       -4.87601
H          9.23245       -2.83354       -6.64965
H         11.52393       -3.36896       -5.07156
