109

C         -0.26104      -18.64271        6.29557
C          1.26712      -18.72376        6.29748
C          1.92142      -17.80818        5.25812
C          3.45122      -17.87796        5.25253
C          4.10497      -16.94109        4.23237
C          5.63543      -16.99823        4.23882
C          6.28924      -16.03540        3.24340
C          7.82010      -16.07808        3.26121
C          8.46898      -15.09320        2.28459
C         10.00013      -15.12937        2.29442
C         10.63350      -14.13031        1.32227
C         12.16335      -14.18448        1.27916
C         12.76981      -13.17962        0.29585
C         14.29075      -13.28184        0.15261
C         14.86113      -12.29848       -0.87328
C         16.36225      -12.46230       -1.13081
C         16.88092      -11.51515       -2.21827
C         18.37652      -11.64717       -2.54394
C         18.83741      -13.03378       -3.02479
C         18.08543      -13.51768       -4.26524
N         18.67704      -14.79398       -4.72331
C         18.70194      -15.31228       -5.95328
N         19.40469      -16.43621       -6.29826
C         19.20042      -16.64475       -7.64599
N         18.42742      -15.73493       -8.16845
N         18.10571      -14.90516       -7.10084
C         17.23642      -13.72697       -7.36813
O         17.91178      -12.52102       -7.29057
C         18.82595      -12.24134       -8.38610
C         19.47886      -10.90047       -8.10807
C         20.58359      -10.55279       -9.11183
C         21.27385       -9.22809       -8.77186
C         22.45497       -8.88800       -9.68443
C         23.14408       -7.57597       -9.29845
C         24.36484       -7.23740      -10.15797
C         25.04265       -5.92585       -9.75162
C         26.27627       -5.58046      -10.59063
C         26.93445       -4.26370      -10.17383
N         19.89876      -17.64138       -8.34899
O         19.06408      -18.09715       -9.38591
O         20.13787      -18.69724       -7.40030
H         -0.70236      -19.30466        7.05348
H         -0.67361      -18.93358        5.31795
H         -0.60455      -17.61898        6.50688
H          1.58273      -19.76476        6.11398
H          1.64950      -18.46384        7.29908
H          1.60501      -16.76627        5.44293
H          1.53956      -18.06586        4.25432
H          3.76884      -18.91639        5.05172
H          3.82967      -17.63601        6.26139
H          3.77979      -15.90469        4.43140
H          3.73414      -17.18508        3.22121
H          5.96400      -18.02961        4.02027
H          6.00282      -16.77305        5.25553
H          5.95243      -15.00626        3.45985
H          5.92962      -16.26264        2.22427
H          8.16016      -17.10251        3.02784
H          8.17836      -15.86592        4.28388
H          8.12812      -14.06983        2.52094
H          8.10796      -15.30262        1.26206
H         10.34265      -16.14943        2.04565
H         10.36525      -14.92784        3.31666
H         10.31199      -13.10856        1.58997
H         10.23899      -14.31367        0.30699
H         12.48293      -15.20485        1.00203
H         12.56912      -14.00336        2.28964
H         12.49873      -12.15543        0.60550
H         12.30778      -13.32576       -0.69693
H         14.55679      -14.31254       -0.14382
H         14.76999      -13.11508        1.13272
H         14.65734      -11.26455       -0.54638
H         14.31959      -12.42338       -1.82823
H         16.55591      -13.51345       -1.41194
H         16.92383      -12.29293       -0.19584
H         16.69365      -10.47547       -1.90653
H         16.28075      -11.65206       -3.13510
H         18.96790      -11.39392       -1.65020
H         18.64688      -10.90121       -3.30869
H         18.71418      -13.77362       -2.21544
H         19.91334      -12.98876       -3.25805
H         18.16952      -12.78503       -5.07927
H         17.02016      -13.67312       -4.03834
H         19.17228      -15.32137       -4.00926
H         19.90713      -17.07436       -5.68712
H         16.44066      -13.71066       -6.61261
H         16.81340      -13.94016       -8.36283
H         18.25627      -12.23864       -9.33185
H         19.58442      -13.04178       -8.44523
H         19.90709      -10.92753       -7.09230
H         18.70640      -10.11577       -8.10360
H         20.16575      -10.50337      -10.13144
H         21.33518      -11.36156       -9.12553
H         21.62835       -9.26728       -7.72663
H         20.53278       -8.41133       -8.80933
H         22.11017       -8.83037      -10.73133
H         23.19046       -9.71111       -9.65033
H         23.45193       -7.62842       -8.23902
H         22.41398       -6.75017       -9.35974
H         24.06322       -7.18076      -11.21848
H         25.09631       -8.06228      -10.09393
H         25.33206       -5.98042       -8.68703
H         24.31201       -5.10093       -9.82335
H         25.98872       -5.53009      -11.65431
H         27.00875       -6.40170      -10.51311
H         26.23493       -3.42059      -10.27399
H         27.81585       -4.03978      -10.79000
H         27.26200       -4.29784       -9.12401
H         19.67070      -18.18351      -10.14519
H         21.00405      -19.04788       -7.67883
