58

C          4.33861       -1.91410        2.41316
C          3.29048       -1.38592        1.45452
O          3.83432       -0.30667        0.61862
P          3.61138        1.23901        0.92528
O          2.41857        1.51980        1.79015
C          5.17013        1.90136        1.59341
C          5.06902        3.36289        2.08357
N          4.78257        3.51014        3.50986
N          5.82718        3.65447        4.40081
C          5.26233        3.91038        5.55698
N          3.88738        3.91566        5.43562
C          3.58920        3.64366        4.13996
N          2.37179        3.52538        3.59327
C          1.14765        4.04572        4.20244
C          0.71038        3.35351        5.51322
O          1.50285        3.35989        6.46598
C         -0.63557        2.76718        5.64506
C         -1.45912        2.48042        4.53634
C         -2.71531        1.90775        4.72659
C         -3.16953        1.63118        6.01979
C         -2.36152        1.91509        7.12912
C         -1.10166        2.47084        6.94529
C          6.00435        4.16446        6.83047
C          6.60626        5.57888        6.95880
C          5.57770        6.68898        7.07157
F          4.68173        6.45062        8.06989
F          6.16504        7.87816        7.32229
F          4.85053        6.83072        5.92067
O          3.60560        1.92989       -0.50729
C          2.47835        1.73840       -1.43280
C          2.65550        2.69324       -2.59218
H          3.93426       -2.78428        2.94888
H          4.62053       -1.16312        3.16413
H          5.24020       -2.23539        1.87606
H          2.40206       -1.00601        1.97634
H          2.98027       -2.15476        0.73597
H          5.91847        1.83225        0.79174
H          5.51330        1.24576        2.40557
H          4.30132        3.92553        1.53300
H          6.02810        3.87178        1.93429
H          3.11865        3.88552        6.14487
H          2.29060        2.81870        2.82058
H          0.37317        4.00214        3.43148
H          1.28494        5.11014        4.45847
H         -1.11869        2.67453        3.51926
H         -3.34293        1.67660        3.86588
H         -4.15849        1.19502        6.16624
H         -2.72217        1.70282        8.13584
H         -0.45898        2.69773        7.79580
H          6.83109        3.44361        6.87908
H          5.34392        3.95910        7.68398
H          7.25386        5.80920        6.10241
H          7.22266        5.62262        7.86669
H          1.54476        1.92810       -0.88342
H          2.49358        0.68990       -1.76307
H          2.64198        3.73712       -2.25314
H          1.83143        2.55402       -3.30514
H          3.59963        2.50418       -3.11848
