123

C          0.07700       -0.28596        0.57105
C          1.59025       -0.51724        0.58023
C          2.03653       -1.66581       -0.33220
C          3.55243       -1.88742       -0.33974
C          4.00630       -3.03314       -1.25135
C          5.52683       -3.22086       -1.27467
C          5.99655       -4.36350       -2.18280
C          7.52221       -4.50033       -2.22528
C          8.01323       -5.64942       -3.11311
C          9.55434       -5.70640       -3.16464
C         10.10586       -6.84284       -3.94860
N          9.82265       -7.11535       -5.27231
C         10.51312       -8.22082       -5.64223
N         11.18625       -8.58963       -4.54764
N         10.94775       -7.74845       -3.49575
C         12.14286       -9.71388       -4.41055
C         12.32868      -10.13712       -2.95735
C         13.40912      -11.21652       -2.83416
S         13.80160      -11.54673       -1.10261
C         12.55263      -12.78167       -0.66155
S         11.60193      -13.54525       -1.80073
N         12.51894      -13.01639        0.66788
C         13.27616      -12.21253        1.64160
C         12.51769      -10.95287        2.08339
C         13.37006      -10.01920        2.94694
C         12.62678       -8.73984        3.34676
C         13.48530       -7.74025        4.12802
C         12.73627       -6.45696        4.50254
C         13.59918       -5.42866        5.24233
C         12.83712       -4.15466        5.61667
C         11.67332      -14.08020        1.23509
C         12.46440      -15.36577        1.50002
C         11.62591      -16.44745        2.19004
C         12.47226      -17.62997        2.67455
C         11.66313      -18.73629        3.36006
C         12.54006      -19.80707        4.01808
C         11.74896      -20.96721        4.63209
C         12.63162      -21.98567        5.35817
C         10.55734       -8.81105       -7.00419
C         11.90718       -8.56685       -7.71636
O         11.62144       -8.65608       -9.09230
C         12.76140       -8.62100       -9.92838
C         12.32357       -8.38224      -11.37435
C         11.51200       -9.50489      -12.11976
C         10.04827       -9.90535      -11.69054
C          8.97601       -8.77123      -11.71084
F          7.74665       -9.35201      -11.67846
F          9.10108       -7.99502      -10.59068
F          9.65772      -10.83970      -12.60078
F         10.06931      -10.49985      -10.46588
F         11.42263       -9.11128      -13.42241
F         12.26061      -10.64278      -12.05599
F         11.62195       -7.21138      -11.47272
F         13.47876       -8.23435      -12.09441
H         -0.20757        0.54084        1.23607
H         -0.46697       -1.18214        0.90455
H         -0.28358       -0.03866       -0.43862
H          1.92594       -0.72255        1.61088
H          2.10645        0.40874        0.27470
H          1.69153       -1.46675       -1.36238
H          1.53063       -2.59665       -0.02036
H          3.89795       -2.08373        0.69046
H          4.05399       -0.95457       -0.65224
H          3.64587       -2.84713       -2.27832
H          3.52465       -3.97228       -0.92738
H          5.88887       -3.40161       -0.24751
H          6.00313       -2.27951       -1.60064
H          5.61475       -4.19883       -3.20573
H          5.55015       -5.31306       -1.84016
H          7.90689       -4.64881       -1.20182
H          7.96347       -3.55283       -2.58060
H          7.60434       -5.52267       -4.13120
H          7.62471       -6.60981       -2.73772
H          9.97191       -5.79565       -2.15240
H          9.94683       -4.76495       -3.58573
H          9.18790       -6.59705       -5.87532
H         13.09915       -9.37983       -4.84311
H         11.75610      -10.53965       -5.02532
H         11.38314      -10.52998       -2.55553
H         12.60900       -9.26337       -2.35616
H         14.36389      -10.89703       -3.27933
H         13.08959      -12.17123       -3.28358
H         14.25556      -11.94703        1.21666
H         13.49026      -12.86153        2.50276
H         11.60609      -11.24785        2.62840
H         12.18391      -10.41315        1.18288
H         14.28498       -9.75016        2.39049
H         13.71036      -10.54833        3.85363
H         11.73794       -9.00579        3.94515
H         12.24027       -8.24983        2.43517
H         14.37588       -7.48074        3.52860
H         13.86846       -8.22163        5.04458
H         11.86150       -6.71386        5.12579
H         12.32731       -5.99372        3.58629
H         14.46863       -5.16824        4.61507
H         14.01357       -5.89096        6.15398
H         12.42583       -3.65719        4.72519
H         13.48701       -3.43205        6.12872
H         11.99466       -4.37659        6.28846
H         10.85047      -14.26223        0.53256
H         11.24662      -13.69115        2.17327
H         13.33968      -15.13182        2.12991
H         12.86121      -15.74089        0.54329
H         10.83909      -16.80210        1.50300
H         11.09882      -16.00744        3.05545
H         13.23654      -17.25303        3.37707
H         13.03063      -18.05821        1.82424
H         10.98996      -19.20853        2.62351
H         11.00556      -18.28769        4.12585
H         13.15749      -19.33336        4.80185
H         13.25404      -20.20666        3.27580
H         11.17450      -21.47386        3.83837
H         10.99976      -20.56395        5.33471
H         13.38539      -22.41698        4.68266
H         12.03846      -22.81527        5.76671
H         13.17014      -21.51902        6.19676
H          9.77291       -8.34982       -7.62072
H         10.33585       -9.88753       -6.96346
H         12.65617       -9.31989       -7.40779
H         12.30804       -7.56524       -7.46039
H         13.34012       -9.56006       -9.87856
H         13.42830       -7.77605       -9.67775
H          9.05946       -8.13654      -12.60606
