105

C         23.94862       -0.92017       -3.78126
C         22.83506       -0.55989       -4.76773
C         21.64481        0.14267       -4.10494
C         20.52003        0.50702       -5.07925
C         19.32804        1.19396       -4.40497
C         18.19049        1.54470       -5.36947
C         16.99123        2.20705       -4.68313
C         15.83992        2.53220       -5.63991
C         14.61492        3.13549       -4.94474
C         13.45855        3.42943       -5.90868
C         12.14552        3.85923       -5.23576
C         12.21059        5.12534       -4.36543
C         12.81560        6.41104       -4.98907
C         13.06721        7.51861       -3.92623
C         12.61383        8.84871       -4.56578
N         11.87273        8.37224       -5.75162
C         11.98129        7.10905       -6.02727
C         11.35107        6.51117       -7.23700
C          9.83492        6.20380       -7.05425
C          8.94098        7.44517       -6.98693
C          7.44494        7.11169       -7.02994
C          6.55061        8.35590       -6.99758
C          5.05457        8.03929       -7.09140
C          4.16590        9.28738       -7.07138
C          2.66837        8.97638       -7.16379
C          1.78095       10.22525       -7.14900
C          0.28183        9.91724       -7.23738
C         -0.59630       11.17093       -7.21548
C         13.75457        9.79923       -4.97890
C         13.37984       10.94845       -5.93933
P         11.87779       11.88090       -5.49044
O         11.72360       12.13516       -4.03877
O         11.83369       13.16287       -6.44177
C         12.03087       14.51929       -5.90687
C         13.48421       14.93910       -5.99332
O         10.75195       10.91782       -6.17590
C          9.32969       11.29412       -6.10221
C          8.69971       10.90664       -4.77751
H         24.78522       -1.42489       -4.28374
H         23.58107       -1.59344       -2.99244
H         24.35103       -0.02312       -3.28727
H         22.48022       -1.47373       -5.27384
H         23.24135        0.08669       -5.56404
H         21.99931        1.05735       -3.59716
H         21.23984       -0.50521       -3.30727
H         20.17135       -0.40687       -5.59177
H         20.92057        1.16267       -5.87254
H         19.67436        2.11216       -3.89827
H         18.93672        0.53949       -3.60619
H         17.85258        0.62724       -5.88259
H         18.57356        2.20983       -6.16355
H         17.32259        3.13156       -4.17755
H         16.62013        1.54304       -3.88282
H         15.53460        1.61196       -6.16745
H         16.19692        3.22328       -6.42419
H         14.92027        4.05427       -4.41224
H         14.26203        2.44109       -4.16219
H         13.25039        2.52353       -6.49998
H         13.78150        4.18472       -6.64919
H         11.80217        3.04375       -4.57923
H         11.36068        3.95707       -6.00084
H         12.82979        4.91801       -3.47929
H         11.20751        5.36311       -3.97634
H         13.75549        6.12578       -5.49843
H         14.11780        7.55615       -3.61603
H         12.46888        7.30866       -3.02986
H         11.90622        9.40273       -3.93142
H         11.33506        9.06541       -6.29648
H         11.88777        5.59023       -7.49311
H         11.46544        7.20829       -8.08163
H          9.68256        5.57299       -6.16539
H          9.54480        5.58840       -7.91911
H          9.18412        8.11430       -7.83204
H          9.14742        8.01704       -6.06612
H          7.19012        6.45190       -6.18302
H          7.23056        6.53085       -7.94307
H          6.83174        9.02681       -7.82925
H          6.74355        8.92152       -6.06962
H          4.76966        7.37302       -6.25867
H          4.86096        7.46764       -8.01560
H          4.45213        9.95174       -7.90607
H          4.36219        9.86080       -6.14770
H          2.38153        8.31448       -6.32779
H          2.47247        8.39993       -8.08494
H          2.06621       10.88610       -7.98687
H          1.97924       10.80345       -6.22892
H         -0.00139        9.25361       -6.40289
H          0.08365        9.34368       -8.15867
H         -0.44892       11.74643       -6.28938
H         -1.66297       10.91668       -7.28085
H         -0.36247       11.83784       -8.05879
H         14.56520        9.21110       -5.43781
H         14.15169       10.22202       -4.04528
H         13.27208       10.60401       -6.97867
H         14.19442       11.68667       -5.94938
H         11.65625       14.54096       -4.87489
H         11.38930       15.14885       -6.53574
H         14.11732       14.34259       -5.32197
H         13.57832       15.99041       -5.68728
H         13.86333       14.84864       -7.01965
H          8.86663       10.76476       -6.94498
H          9.25214       12.37370       -6.29525
H          8.79563        9.82780       -4.59135
H          7.62696       11.14470       -4.80633
H          9.15580       11.44974       -3.94149
