47

C          2.78258        1.78394       -5.90350
C          4.30392        1.65529       -5.79455
C          4.98716        2.93947       -5.31000
C          6.50700        2.79284       -5.17998
C          7.23129        4.06764       -4.76019
O          6.74344        4.66253       -3.52913
C          7.00308        3.92474       -2.34849
C          8.47157        3.95547       -1.95550
N          9.07508        5.15039       -1.68772
C          8.28308        6.42248       -1.63768
C          7.70496        6.65932       -0.24227
C          6.82641        7.91564       -0.19696
C          5.93565        7.93358        1.05465
N          5.01030        6.79208        1.03634
C         10.39388        5.23523       -1.38309
C         11.19226        4.10593       -1.32462
C         10.62119        2.86521       -1.57817
C          9.25068        2.77735       -1.89647
C          8.66769        1.50723       -2.15136
C          8.22691        0.39581       -2.34890
H          2.32699        0.84840       -6.25420
H          2.49774        2.57673       -6.61079
H          2.32988        2.02919       -4.93106
H          4.72263        1.36959       -6.77433
H          4.55594        0.82917       -5.10690
H          4.55798        3.23909       -4.33903
H          4.75706        3.76526       -6.00581
H          6.94121        2.49830       -6.15104
H          6.75134        1.96439       -4.49378
H          7.07151        4.86337       -5.50077
H          8.32064        3.89305       -4.68589
H          6.70174        2.87071       -2.43627
H          6.38940        4.37651       -1.55471
H          7.50407        6.34845       -2.40416
H          8.97385        7.22243       -1.93491
H          8.52236        6.73834        0.49312
H          7.07938        5.80441        0.05957
H          6.17781        7.94773       -1.08947
H          7.44295        8.82730       -0.22760
H          5.43362        8.91579        1.11773
H          6.56480        7.84531        1.95413
H          4.20968        6.98885        0.43378
H          4.63224        6.61606        1.96651
H         10.77075        6.23767       -1.18987
H         12.24856        4.20858       -1.08302
H         11.21785        1.95430       -1.53994
H          7.83057       -0.58478       -2.52351
