51

C          7.88227        0.96624        7.05112
C          7.38782        1.22713        5.62634
C          7.24701        2.72223        5.32149
C          6.80044        3.06313        3.89545
N          5.46896        2.52158        3.52989
C          4.38313        3.16378        3.99683
O          4.42699        4.17733        4.71441
C          2.98146        2.63698        3.64223
S          1.87782        3.58006        4.75051
C          1.65703        5.23216        3.92383
C          0.68432        6.05747        4.71288
C          1.07756        6.63932        5.93127
C          0.17386        7.41130        6.66113
C         -1.12549        7.61144        6.18164
C         -1.52108        7.04022        4.96912
C         -0.62187        6.26077        4.23812
C          0.26175        2.80417        4.39628
C          0.13995        1.45816        5.12594
C         -1.31085        0.99619        5.31321
C         -2.14257        0.77709        4.00590
Br        -1.26474       -0.44768        2.74890
F         -3.36774        0.32103        4.29247
F         -2.29040        1.98440        3.38535
Br        -1.30756       -0.65845        6.35620
F         -1.99423        1.96029        6.02600
C          5.43379        1.36947        2.63235
H          7.97089       -0.10871        7.25483
H          7.19376        1.39295        7.79513
H          8.87000        1.41969        7.21662
H          6.41513        0.72484        5.48621
H          8.08348        0.76590        4.90481
H          8.21907        3.21983        5.47270
H          6.55194        3.19003        6.03538
H          7.50945        2.66012        3.15846
H          6.75992        4.15367        3.76962
H          2.82481        1.57428        3.87397
H          2.69494        2.81839        2.59604
H          1.32406        5.03448        2.89606
H          2.67978        5.62902        3.93219
H          2.09507        6.49485        6.30134
H          0.48645        7.86495        7.60182
H         -1.82891        8.21970        6.75109
H         -2.52901        7.20508        4.58779
H         -0.92984        5.83033        3.28242
H          0.12373        2.72677        3.31050
H         -0.45858        3.53444        4.79407
H          0.55115        1.54099        6.14273
H          0.68766        0.66275        4.60540
H          5.98568        0.52753        3.07155
H          5.89904        1.62689        1.66918
H          4.40616        1.04549        2.43828
