86

C         -0.26566      -12.55734       -3.70356
C          1.23585      -12.67706       -3.97536
C          1.95621      -11.32501       -4.03531
C          3.45400      -11.44533       -4.33148
C          4.19126      -10.10304       -4.38634
C          5.67700      -10.24519       -4.73062
C          6.44013       -8.91783       -4.78722
C          7.90729       -9.08979       -5.19208
C          8.70902       -7.78533       -5.24251
C         10.15354       -7.99774       -5.70500
C         11.00247       -6.72384       -5.75214
C         12.41990       -6.98132       -6.27211
C         13.29995       -5.72903       -6.34812
C         14.74265       -5.99999       -6.80847
C         14.88339       -6.66408       -8.18833
C         14.34922       -5.80251       -9.34007
C         14.32833       -6.54228      -10.67845
O         15.59205       -7.16723      -11.01110
C         16.45200       -6.19698      -11.52139
N         15.49740       -5.19782      -12.24342
C         14.08384       -5.68414      -11.93924
C         13.07320       -4.54680      -11.86332
C         12.91573       -3.76462      -13.17735
O         12.78819       -4.75174      -14.20803
C         11.72787       -2.80915      -13.13257
C         17.45354       -6.82877      -12.46912
C         18.61011       -5.90101      -12.89637
C         19.27772       -6.33748      -14.21961
C         18.80991       -5.62451      -15.49823
S         17.03021       -5.77536      -15.79954
O         16.63635       -7.16237      -15.85599
O         16.31428       -4.86707      -14.90129
Cl        16.86290       -4.95723      -17.67904
H         -0.74921      -13.54314       -3.66405
H         -0.76791      -11.97288       -4.48899
H         -0.45988      -12.05401       -2.74472
H          1.39659      -13.21384       -4.92585
H          1.70380      -13.30122       -3.19516
H          1.81139      -10.79187       -3.07897
H          1.48074      -10.69308       -4.80664
H          3.59124      -11.97270       -5.29226
H          3.92643      -12.08771       -3.56744
H          4.08573       -9.58609       -3.41633
H          3.70520       -9.44808       -5.13077
H          5.77374      -10.75962       -5.70335
H          6.16014      -10.90931       -3.99228
H          6.38459       -8.41893       -3.80398
H          5.94135       -8.23745       -5.49991
H          7.95195       -9.57935       -6.18124
H          8.39827       -9.78796       -4.49167
H          8.70553       -7.31091       -4.24580
H          8.20806       -7.07064       -5.91930
H         10.14446       -8.46302       -6.70715
H         10.64243       -8.73184       -5.04080
H         11.05398       -6.27511       -4.74549
H         10.50670       -5.97273       -6.39252
H         12.34208       -7.45121       -7.26860
H         12.91431       -7.73109       -5.62956
H         13.34079       -5.25377       -5.35513
H         12.82024       -4.98150       -7.00479
H         15.23594       -6.65035       -6.06872
H         15.30987       -5.05344       -6.80130
H         14.36307       -7.63519       -8.19328
H         15.94305       -6.89719       -8.37125
H         14.93564       -4.86687       -9.39950
H         13.31482       -5.48891       -9.12807
H         13.60419       -7.36743      -10.63806
H         16.94061       -5.60276      -10.72573
H         15.68575       -5.16493      -13.27173
H         15.63727       -4.24826      -11.88062
H         13.82583       -6.34697      -12.77423
H         13.32324       -3.84591      -11.05126
H         12.10363       -5.00119      -11.60361
H         13.83759       -3.16876      -13.35578
H         12.56271       -4.30828      -15.04092
H         10.79182       -3.36360      -12.97919
H         11.64747       -2.24637      -14.07329
H         11.83931       -2.07484      -12.32195
H         16.89936       -7.22833      -13.33150
H         17.85669       -7.70818      -11.94657
H         19.36801       -5.89391      -12.10115
H         18.27077       -4.85665      -12.98965
H         19.18722       -7.42522      -14.35360
H         20.35668       -6.12772      -14.17338
H         19.28291       -6.05576      -16.39082
H         18.99625       -4.54152      -15.47718
