38

C          0.70359       -3.97857        2.21774
C          2.22252       -4.16365        2.14906
C          2.93014       -2.91691        1.64592
O          4.35166       -3.16974        1.66088
C          5.10358       -2.11251        1.15066
C          6.57903       -2.40682        1.12872
C          7.47466       -1.33282        1.00803
Br         6.91905        0.44458        0.76317
C          8.84659       -1.56647        1.07085
N          9.25288       -2.82835        1.23382
N          8.48306       -3.90159        1.28401
C          7.15591       -3.71867        1.20604
C          6.39838       -5.01771        1.14119
C          5.82605       -5.26163       -0.26529
O          6.87085       -5.03050       -1.19625
C          6.58042       -5.47299       -2.53211
C          7.87566       -5.36442       -3.31657
O          8.89876       -6.19008       -2.77214
H          0.21964       -4.89694        2.57197
H          0.27824       -3.73924        1.23262
H          0.42638       -3.17076        2.90963
H          2.47295       -5.00500        1.48341
H          2.61963       -4.41529        3.14470
H          2.70983       -2.04428        2.28886
H          2.61628       -2.66782        0.61440
H          4.95521       -1.18544        1.74409
H          4.80227       -1.84374        0.11013
H          9.60717       -0.78959        1.01307
H         10.25141       -3.03741        1.31538
H          5.57728       -5.02922        1.86582
H          7.11445       -5.81222        1.38353
H          4.96555       -4.59614       -0.46335
H          5.46362       -6.30399       -0.32267
H          5.79040       -4.84598       -2.98612
H          6.23347       -6.52177       -2.50502
H          8.19456       -4.30454       -3.35351
H          7.71014       -5.70035       -4.34972
H          8.91902       -6.01900       -1.81595
