45

C          2.62733        2.52084       -0.54387
C          3.28531        1.16599       -0.39416
O          3.88842        0.81350       -1.66701
C          4.50130       -0.45018       -1.64284
N          4.97646       -0.71816       -2.99534
N          4.76335       -1.91851       -3.59813
C          5.42570       -1.85827       -4.72975
N          6.02867       -0.60466       -4.91149
C          5.76115        0.08256       -3.75495
N          6.18756        1.28750       -3.38461
C          6.50195        0.03992       -6.23017
C          5.61315        1.31082       -6.48817
C          6.12677        2.15830       -7.66403
C          4.12811        0.96011       -6.67245
C          8.00527        0.34175       -6.10331
O          8.23589        1.43665       -5.19908
C          6.35634       -0.95605       -7.38799
C          5.76780       -3.16684       -5.41540
O          6.92180       -3.34963       -5.75475
C          4.66081       -4.16820       -5.53583
H          2.14408        2.80207        0.40107
H          1.85945        2.50015       -1.32763
H          3.36361        3.29747       -0.78968
H          2.54798        0.38808       -0.12908
H          4.06716        1.17865        0.38639
H          3.80688       -1.27013       -1.39567
H          5.36234       -0.47250       -0.94498
H          6.98099        1.69735       -3.89053
H          5.68870        1.76328       -2.63774
H          5.68731        1.95498       -5.60364
H          6.07442        1.63021       -8.62577
H          7.15605        2.50564       -7.51141
H          5.49691        3.05259       -7.75805
H          3.94326        0.41974       -7.61062
H          3.53691        1.88388       -6.71143
H          3.72287        0.35600       -5.84816
H          8.38760        0.59440       -7.10426
H          8.51473       -0.57063       -5.75476
H          9.19027        1.59374       -5.13138
H          5.36495       -1.42331       -7.41229
H          7.11420       -1.74345       -7.35721
H          6.47436       -0.40310       -8.32581
H          4.11427       -4.26157       -4.58709
H          5.06892       -5.13462       -5.84706
H          3.93307       -3.81449       -6.28390
