75

C         13.35725       -4.96247        7.27759
C         12.77323       -4.13093        6.13370
C         13.22832       -2.66844        6.15661
C         12.64428       -1.82457        5.02014
C         13.11601       -0.36741        5.03360
C         12.52891        0.47824        3.89966
C         13.03507        1.92338        3.88786
C         12.44278        2.77234        2.75885
C         12.99634        4.19897        2.71595
C         12.41490        5.05511        1.58693
C         13.03250        6.45479        1.51042
C         12.48225        7.30391        0.35961
C         13.08347        8.71495        0.25733
C         14.60754        8.76926        0.05289
C         15.07757        8.08720       -1.23979
C         16.59388        8.03857       -1.37397
N         17.22110        9.38158       -1.49860
C         18.30853        9.31485       -2.27472
N         19.20796       10.29856       -2.46532
C         19.20229       11.59981       -1.88147
C         20.41774       12.15293       -1.46783
C         20.40246       13.44142       -0.92862
N         19.28884       14.17250       -0.77644
C         18.13670       13.62914       -1.18807
C         18.03150       12.35496       -1.75666
N         18.42229        8.10024       -2.84951
C         17.18114        7.31781       -2.62571
C         16.31468        7.31271       -3.90095
C         17.06451        6.70367       -5.05375
C         17.47854        7.38251       -6.12918
H         13.01580       -6.00574        7.23319
H         13.06053       -4.55645        8.25596
H         14.45689       -4.96997        7.24327
H         11.67162       -4.16791        6.17541
H         13.05461       -4.58221        5.16734
H         14.33117       -2.63097        6.10948
H         12.95229       -2.21681        7.12570
H         11.54190       -1.85204        5.07506
H         12.91018       -2.28358        4.05164
H         14.21857       -0.34249        4.97319
H         12.85610        0.09205        6.00332
H         11.42761        0.47722        3.97596
H         12.76537        0.00334        2.93114
H         14.13630        1.92073        3.80160
H         12.80940        2.39901        4.85822
H         11.34473        2.80764        2.86478
H         12.63758        2.27782        1.79076
H         14.09526        4.15550        2.60862
H         12.80759        4.69508        3.68373
H         11.32230        5.14190        1.71383
H         12.56656        4.53818        0.62242
H         14.12768        6.34528        1.41470
H         12.86696        6.98393        2.46511
H         11.39202        7.40709        0.47839
H         12.61712        6.76151       -0.59255
H         12.84449        9.27485        1.17526
H         12.59262        9.25873       -0.56665
H         15.11546        8.30465        0.91415
H         14.91288        9.83012        0.04840
H         14.63383        8.58708       -2.11482
H         14.71964        7.04575       -1.25288
H         17.01647        7.56008       -0.47275
H         17.12126       10.09544       -0.78202
H         20.06333       10.02954       -2.94537
H         21.35396       11.59853       -1.55427
H         21.33548       13.90396       -0.59665
H         17.24204       14.24753       -1.07658
H         17.07110       11.99948       -2.12974
H         18.89643        7.99059       -3.74694
H         17.45455        6.28667       -2.36389
H         16.00057        8.33817       -4.15002
H         15.40495        6.72840       -3.69090
H         17.28497        5.63342       -4.97650
H         17.25196        8.44381       -6.25930
H         18.02001        6.89294       -6.93861
