50

C         10.90949        3.70329       -0.20537
C         10.23248        2.33417       -0.30499
C         10.42798        1.47242        0.94869
C          9.73424        0.10703        0.85144
C          9.95270       -0.72699        2.10516
O          9.18426       -1.97802        2.05499
C          9.77896       -3.03479        1.48716
O         10.91257       -3.05628        1.03742
C          8.83617       -4.23358        1.46051
C          9.57885       -5.52135        1.10782
C         10.23066       -5.52865       -0.28972
N         10.22173       -6.97531       -0.63997
C          9.45372       -7.66873        0.13389
C          8.73550       -6.83905        1.13356
C          7.24287       -6.73020        0.70294
C          6.48709       -8.06563        0.68315
C          4.96524       -7.84781        0.67598
N          4.55746       -7.09330        1.86539
C         10.96438       -7.49584       -1.81310
C         10.43711       -6.94593       -3.05106
C         10.00094       -6.48905       -4.08028
H         10.75189        4.29438       -1.11738
H         11.99501        3.60376       -0.05758
H         10.51264        4.28515        0.63951
H         10.62329        1.79061       -1.18176
H          9.15277        2.46793       -0.48696
H         10.04541        2.01796        1.82878
H         11.50766        1.32667        1.12581
H         10.11849       -0.44277       -0.02280
H          8.65189        0.24719        0.69820
H          9.56738       -0.22294        3.00040
H         11.01188       -0.97749        2.25028
H          8.03435       -4.01042        0.73833
H          8.34528       -4.31954        2.44040
H         10.39317       -5.65034        1.83813
H         11.25675       -5.14579       -0.29939
H          9.65635       -4.99042       -1.05999
H          9.33280       -8.74205       -0.02830
H          8.76107       -7.31862        2.12434
H          7.17166       -6.23930       -0.28174
H          6.73577       -6.07910        1.43178
H          6.75469       -8.65623        1.57724
H          6.76054       -8.67841       -0.19123
H          4.46511       -8.82720        0.56893
H          4.68810       -7.25700       -0.21100
H          4.47121       -7.70458        2.67791
H          3.64839       -6.65357        1.73120
H         10.89424       -8.59345       -1.79811
H         12.02295       -7.22030       -1.67883
H          9.62206       -6.09147       -5.00065
