62

C          8.47256       -0.30153        3.40959
C          7.28969        0.15058        2.55010
C          6.59818        1.40361        3.09838
C          5.40706        1.82180        2.22888
N          4.71794        3.02508        2.72746
C          3.69564        2.91754        3.59821
S          3.13891        1.47408        4.23589
S          2.96317        4.51574        4.02273
C          1.63573        3.99659        5.13500
C          0.40614        3.45357        4.39368
C         -0.52483        2.62208        5.29657
P         -1.30054        3.54062        6.65759
C         -2.13392        5.06682        6.08611
C         -3.24356        4.75848        5.04560
O         -3.79383        5.95171        4.52010
C         -2.63677        5.90649        7.27151
C         -2.38684        2.47808        7.65912
C         -1.72385        1.18708        8.18646
C         -0.49690        1.40764        9.07544
C          5.22127        4.31241        2.22258
C          4.56745        4.76420        0.90974
C          5.13908        6.09691        0.41335
C          4.47149        6.58939       -0.87296
H          8.94653       -1.20013        2.99284
H          8.15275       -0.53895        4.43474
H          9.24304        0.48058        3.47450
H          6.55145       -0.66546        2.47836
H          7.63306        0.34186        1.51929
H          7.32338        2.23241        3.16164
H          6.23908        1.21645        4.12230
H          4.66757        1.01146        2.18289
H          5.73598        2.04552        1.20263
H          1.41656        4.90203        5.72303
H          2.05811        3.22411        5.79703
H          0.75383        2.76715        3.61000
H         -0.13916        4.26828        3.89365
H          0.04513        1.79556        5.75163
H         -1.34419        2.16708        4.71843
H         -0.26735        3.98665        7.51265
H         -1.32567        5.61761        5.57054
H         -4.07673        4.23333        5.53865
H         -2.86134        4.10342        4.24390
H         -3.25006        6.26397        3.77968
H         -3.43034        5.39278        7.83162
H         -3.06364        6.83843        6.88117
H         -1.82846        6.16861        7.96723
H         -3.26206        2.24492        7.03269
H         -2.74241        3.10653        8.49107
H         -1.47209        0.52819        7.34159
H         -2.50037        0.65507        8.75540
H          0.36091        1.82262        8.52479
H         -0.16210        0.45364        9.50029
H         -0.71868        2.08223        9.91462
H          6.30772        4.19965        2.08872
H          5.09038        5.07650        3.00444
H          3.47979        4.85488        1.06025
H          4.71288        3.98691        0.14165
H          6.22458        5.99113        0.25017
H          5.02458        6.85841        1.20333
H          4.59140        5.86347       -1.69019
H          4.90605        7.54020       -1.20818
H          3.39303        6.74993       -0.72731
