44

C          4.17230       -1.08718       -0.34673
C          4.08287       -0.30765        0.96673
C          2.67672       -0.24061        1.58193
S          2.16769       -1.94243        2.08883
C          2.89689       -2.14761        3.76715
C          2.67715       -3.55999        4.25437
C          3.77861       -4.31318        4.88425
O          3.37475       -4.57589        3.52908
C          0.37617       -1.82774        2.45765
C         -0.35107       -1.34280        1.20163
O          0.23002       -2.00033        0.10204
Si        -0.18954       -1.74496       -1.53613
C          0.11757        0.06142       -1.95144
C          0.96343       -2.89142       -2.45280
C         -1.99274       -2.19195       -1.77255
C          2.51916        0.81206        2.68688
O          2.47324        2.05615        2.00530
H          5.19709       -1.05713       -0.73651
H          3.51345       -0.65138       -1.11046
H          3.89778       -2.14447       -0.22803
H          4.36920        0.74227        0.80065
H          4.80219       -0.70002        1.70510
H          1.94662       -0.01882        0.78712
H          2.46892       -1.40469        4.45352
H          3.96794       -1.94973        3.62310
H          1.65026       -3.81923        4.53737
H          3.53713       -5.09858        5.60496
H          4.75974       -3.84162        4.99634
H          0.20221       -1.18874        3.33297
H          0.10365       -2.86624        2.69306
H         -0.27143       -0.24222        1.11998
H         -1.42434       -1.58140        1.31961
H          1.16649        0.35094       -1.79646
H         -0.51857        0.74148       -1.36744
H         -0.11424        0.23992       -3.01154
H          2.01666       -2.63577       -2.27409
H          0.78321       -2.82662       -3.53525
H          0.80669       -3.93538       -2.14958
H         -2.66281       -1.54864       -1.18462
H         -2.18399       -3.23740       -1.49402
H         -2.27393       -2.07191       -2.82870
H          3.37377        0.76155        3.38535
H          1.59163        0.64520        3.26682
H          2.56297        2.77787        2.64713
