124

C         23.33630        8.04111        4.03128
C         22.14279        7.24136        3.50219
C         22.51795        6.25460        2.39153
C         21.33138        5.46007        1.83664
C         21.71594        4.51138        0.69704
C         20.53983        3.72001        0.11646
C         20.94177        2.80905       -1.04759
C         19.78949        1.97789       -1.62043
C         20.21270        1.09129       -2.79599
C         19.10266        0.17333       -3.31609
C         19.54140       -0.70496       -4.49174
C         18.47354       -1.70359       -4.94769
C         18.92606       -2.59342       -6.10917
C         17.91649       -3.68600       -6.47319
C         18.38012       -4.58329       -7.62496
C         17.41641       -5.73930       -7.91735
C         17.78213       -6.57804       -9.14712
C         19.14177       -7.30702       -9.00886
C         19.48003       -8.11977      -10.22783
C         19.28256       -9.49545      -10.23801
C         18.81812      -10.34968       -9.09049
C         17.28293      -10.46102       -8.93414
C         16.57037      -11.10882      -10.12570
C         15.07407      -11.34212       -9.88480
C         14.38229      -12.06840      -11.04303
C         12.88512      -12.30722      -10.81902
C         12.23153      -13.12739      -11.93630
C         10.72475      -13.33828      -11.75544
C         10.09785      -14.20880      -12.85015
C          8.58310      -14.38866      -12.70680
C          7.96295      -15.26896      -13.79815
C          6.44572      -15.42442      -13.66423
N         19.52725      -10.17175      -11.41348
C         19.93560       -9.62200      -12.56003
C         20.18935       -8.24504      -12.61519
C         19.97494       -7.47637      -11.41450
C         20.27365       -6.08955      -11.45306
C         20.74347       -5.51006      -12.61338
C         20.91964       -6.26938      -13.79375
C         20.65600       -7.62325      -13.82087
C         20.88019       -8.42694      -15.09103
O         19.80602       -9.29701      -15.41841
C         18.61445       -8.60783      -15.84046
C         17.50253       -9.62869      -16.01248
C         16.19160       -8.99940      -16.50180
C         15.05641      -10.01772      -16.63603
H         23.03501        8.74362        4.82051
H         23.81076        8.62648        3.22928
H         24.10650        7.37805        4.45319
H         21.37323        7.93551        3.12368
H         21.66897        6.69135        4.33299
H         23.28223        5.55275        2.77042
H         23.00211        6.80631        1.56597
H         20.55735        6.16248        1.47993
H         20.86115        4.88343        2.65275
H         22.48679        3.80573        1.05455
H         22.19474        5.09310       -0.11062
H         19.75725        4.42188       -0.22194
H         20.07578        3.11351        0.91422
H         21.74551        2.12828       -0.71500
H         21.38382        3.42305       -1.85224
H         18.97311        2.64869       -1.94111
H         19.36378        1.34589       -0.82105
H         21.07496        0.47262       -2.48928
H         20.57951        1.72846       -3.62006
H         18.23026        0.78001       -3.61625
H         18.75101       -0.47219       -2.49198
H         20.45339       -1.25991       -4.20777
H         19.83321       -0.06236       -5.34117
H         17.55620       -1.16101       -5.23558
H         18.18978       -2.34209       -4.09255
H         19.88943       -3.06693       -5.84790
H         19.12846       -1.96678       -6.99566
H         16.94738       -3.22703       -6.73440
H         17.72452       -4.31078       -5.58343
H         19.38214       -4.97638       -7.37863
H         18.50606       -3.97222       -8.53742
H         16.40311       -5.33447       -8.07201
H         17.34623       -6.39354       -7.03092
H         17.80025       -5.93355      -10.04118
H         16.99799       -7.32827       -9.33381
H         19.10915       -7.94824       -8.11818
H         19.94122       -6.57660       -8.82153
H         19.25503       -9.96636       -8.15921
H         19.23692      -11.36206       -9.22128
H         16.85873       -9.46407       -8.73862
H         17.09451      -11.05569       -8.02675
H         17.04848      -12.08084      -10.35165
H         16.69144      -10.48400      -11.02864
H         14.57820      -10.37287       -9.70339
H         14.94435      -11.92719       -8.95831
H         14.88208      -13.03962      -11.20772
H         14.52398      -11.49361      -11.97585
H         12.36924      -11.33596      -10.72193
H         12.73875      -12.82431       -9.85467
H         12.73113      -14.11020      -12.00088
H         12.41410      -12.63315      -12.90719
H         10.21846      -12.35729      -11.73197
H         10.53474      -13.79874      -10.76995
H         10.58512      -15.19987      -12.84915
H         10.31874      -13.76659      -13.83793
H          8.09544      -13.39775      -12.71783
H          8.35742      -14.82328      -11.71688
H          8.43945      -16.26378      -13.77535
H          8.20362      -14.84289      -14.78711
H          6.17368      -15.87972      -12.70031
H          6.03389      -16.06109      -14.45922
H          5.93778      -14.45015      -13.72304
H         19.36209      -11.17843      -11.39977
H         20.03552      -10.27783      -13.42253
H         20.13416       -5.47558      -10.56569
H         20.97150       -4.44364      -12.62882
H         21.27091       -5.77476      -14.70103
H         21.76431       -9.07507      -14.97505
H         21.09508       -7.72892      -15.92025
H         18.82093       -8.07659      -16.78861
H         18.33024       -7.84724      -15.08793
H         17.33384      -10.13723      -15.04733
H         17.83627      -10.40417      -16.72034
H         16.36458       -8.51038      -17.47464
H         15.88717       -8.19682      -15.80879
H         15.31971      -10.81921      -17.34112
H         14.13713       -9.54258      -17.00257
H         14.82425      -10.48934      -15.66943
