83

C          0.97614       -1.37180        0.20504
C          2.49411       -1.22790        0.34477
C          2.94720        0.22000        0.56251
C          4.46432        0.38054        0.70514
C          4.90688        1.83447        0.89697
C          6.42048        2.00590        1.06209
C          6.85587        3.46988        1.18146
C          8.36418        3.65263        1.37955
C          8.79731        5.12198        1.41094
C         10.30311        5.31295        1.61774
C         10.72489        6.78662        1.63638
C         12.23623        6.95596        1.83630
C         12.74410        8.35854        2.03360
C         12.04208        9.48378        1.55047
C         12.53227       10.76400        1.73781
C         11.90182       12.04951        1.27540
C         10.55806       11.92764        0.54839
C         10.06894       13.32217        0.14186
S          8.49714       13.17283       -0.74977
C          8.24131       14.84459       -1.28107
S          9.31720       16.07008       -1.09391
N          7.00308       14.99352       -1.91472
C          5.91960       14.10241       -1.92202
N          4.91581       14.56579       -2.61332
C          5.33134       15.80463       -3.09330
C          6.59748       16.09515       -2.67510
N         13.71303       10.88986        2.41357
C         14.44504        9.85692        2.90652
C         13.95624        8.57329        2.70651
C         15.73185       10.17964        3.61609
C         16.93534        9.55729        2.92922
C         17.68966        8.56733        3.57142
C         18.79955        8.00473        2.94242
C         19.18765        8.40789        1.65402
C         18.42088        9.39538        1.01613
C         17.31076        9.96241        1.64135
C         20.39637        7.80406        0.99003
H          0.68192       -2.41901        0.05044
H          0.59684       -0.79077       -0.64900
H          0.45661       -1.01040        1.10522
H          2.98756       -1.63052       -0.55620
H          2.84811       -1.84929        1.18496
H          2.45181        0.62454        1.46309
H          2.59276        0.84148       -0.27916
H          4.96144       -0.03641       -0.18859
H          4.81807       -0.22660        1.55709
H          4.39452        2.25922        1.77822
H          4.56552        2.43323        0.03395
H          6.93702        1.54281        0.20284
H          6.75741        1.44715        1.95295
H          6.31810        3.94491        2.02083
H          6.53974        4.01519        0.27471
H          8.90505        3.13187        0.57012
H          8.67394        3.15788        2.31656
H          8.24953        5.64765        2.21282
H          8.49442        5.60933        0.46763
H         10.85431        4.78462        0.82052
H         10.60784        4.83563        2.56514
H         10.18578        7.30978        2.44488
H         10.40856        7.25917        0.69137
H         12.77288        6.53580        0.96445
H         12.57261        6.34854        2.69220
H         11.09873        9.35520        1.02502
H         12.62523       12.56397        0.61753
H         11.78230       12.70596        2.15590
H          9.81731       11.44077        1.20179
H         10.66742       11.29830       -0.34855
H         10.78241       13.82878       -0.52397
H          9.91572       13.97011        1.01720
H          5.93896       13.16648       -1.37126
H          4.68005       16.41102       -3.71482
H          7.25769       16.93871       -2.82829
H         14.07419       11.83231        2.57017
H         14.53799        7.73254        3.08504
H         15.66155        9.80718        4.64922
H         15.84739       11.27401        3.68822
H         17.41991        8.24677        4.58016
H         19.38327        7.24493        3.46549
H         18.70397        9.73207        0.01726
H         16.74373       10.73739        1.11897
H         21.30153        7.97435        1.59069
H         20.56646        8.23044       -0.00588
H         20.28501        6.71563        0.87918
