66

C          0.84037        0.09132        0.15842
C          2.22749        0.15231       -0.48681
C          2.93013       -1.20866       -0.54160
C          4.31438       -1.16284       -1.19683
C          5.02438       -2.52027       -1.21993
C          6.41276       -2.47923       -1.86687
C          7.15111       -3.82048       -1.81182
C          8.53047       -3.78705       -2.47776
C          9.29707       -5.10849       -2.36426
C         10.65712       -5.07811       -3.06963
C         11.43441       -6.38950       -2.92002
C         12.80606       -6.42299       -3.64583
C         13.71884       -5.34708       -3.09561
C         14.52221       -4.54214       -3.79312
C         13.51016       -7.79549       -3.49995
C         12.76656       -8.90243       -4.23950
N         12.45468       -8.46810       -5.60629
C         12.35260       -7.17695       -5.97573
N         11.99943       -6.87087       -7.23785
C         11.78232       -5.51685       -7.75936
C         11.07774       -5.55914       -9.12624
C          9.67334       -6.17259       -9.03783
C         11.03533       -4.14712       -9.72325
N         12.61435       -6.20469       -5.09559
H          0.37504        1.08507        0.21058
H          0.89249       -0.30538        1.18358
H          0.16387       -0.56226       -0.41272
H          2.86210        0.86552        0.06585
H          2.13996        0.55684       -1.50920
H          2.29175       -1.92775       -1.08508
H          3.02630       -1.60796        0.48393
H          4.94653       -0.43173       -0.66212
H          4.21859       -0.78012       -2.22860
H          4.39489       -3.25480       -1.75229
H          5.11727       -2.89764       -0.18624
H          7.02536       -1.70905       -1.36578
H          6.31866       -2.15190       -2.91761
H          6.53318       -4.60167       -2.28856
H          7.26398       -4.12763       -0.75751
H          9.13369       -2.97916       -2.02767
H          8.41569       -3.51903       -3.54364
H          8.68570       -5.92720       -2.78328
H          9.44339       -5.35587       -1.29867
H         11.25834       -4.24136       -2.67759
H         10.49230       -4.85996       -4.14002
H         10.81291       -7.22295       -3.28647
H         11.62164       -6.59101       -1.85263
H         13.70065       -5.27706       -2.00446
H         14.60313       -4.58033       -4.88148
H         15.15363       -3.81101       -3.29046
H         13.58873       -8.05744       -2.43732
H         14.53225       -7.70140       -3.89301
H         11.83619       -9.18162       -3.72054
H         13.39421       -9.80113       -4.30358
H         12.13588       -9.16947       -6.26540
H         11.96823       -7.62898       -7.91193
H         12.74656       -4.98869       -7.85587
H         11.15144       -4.95878       -7.04534
H         11.69996       -6.18690       -9.79179
H          9.01729       -5.55800       -8.40257
H          9.67347       -7.19249       -8.62735
H          9.21567       -6.22408      -10.03408
H         10.43062       -3.46988       -9.10138
H         10.58196       -4.16736      -10.72225
H         12.03976       -3.71280       -9.82231
H         12.54840       -5.24418       -5.41670
