81

C         17.64273        4.24777        4.72206
C         16.50952        3.54620        3.96961
C         16.82021        3.30985        2.48740
C         15.68993        2.60912        1.72770
C         16.00063        2.36562        0.24740
C         14.86341        1.66648       -0.50361
C         15.16385        1.41459       -1.98427
C         14.00895        0.72715       -2.72061
C         14.30502        0.47013       -4.20326
C         13.13305       -0.18388       -4.91150
O         13.49701       -0.40056       -6.29609
C         12.44215       -0.89880       -7.05968
N         12.91420       -0.97226       -8.44481
C         13.20575       -2.14290       -9.12883
C         13.68805       -1.79545      -10.36093
N         13.68242       -0.40608      -10.37359
C         13.22088        0.09686       -9.21229
C         13.12583        1.53928       -8.85246
C         12.82929        2.46748      -10.04445
C         11.45657        2.23747      -10.68824
C         11.17238        3.16460      -11.87508
C          9.80450        2.91324      -12.51866
C          9.50213        3.82991      -13.70880
C          8.13778        3.55887      -14.35125
C          7.82353        4.46825      -15.54475
C          6.46141        4.17960      -16.18047
C         14.10891       -2.62227      -11.52999
C         12.91317       -3.30005      -12.22175
C         13.36055       -3.99947      -13.52214
F         14.38458       -4.85570      -13.32651
F         12.32309       -4.70157      -14.04489
F         13.74860       -3.08012      -14.44257
O         12.36861       -4.22579      -11.30317
H         17.39080        4.39977        5.78048
H         17.86022        5.23487        4.28740
H         18.57174        3.65939        4.68352
H         15.58490        4.14201        4.05542
H         16.28962        2.57860        4.45190
H         17.74470        2.71181        2.40041
H         17.04166        4.27743        2.00292
H         14.76687        3.20964        1.81177
H         15.46592        1.64410        2.21565
H         16.92137        1.76218        0.16146
H         16.22475        3.32939       -0.24293
H         13.94410        2.27222       -0.41726
H         14.63775        0.70497       -0.00992
H         16.07496        0.79814       -2.07558
H         15.39501        2.37319       -2.48092
H         13.10057        1.34759       -2.62789
H         13.77684       -0.22902       -2.22091
H         15.19056       -0.17680       -4.30657
H         14.54323        1.41926       -4.71052
H         12.23433        0.46116       -4.87164
H         12.87551       -1.15408       -4.44818
H         11.55048       -0.24238       -7.02223
H         12.13540       -1.92016       -6.76911
H         13.03164       -3.12168       -8.69984
H         13.98122        0.17424      -11.15320
H         14.06951        1.82432       -8.35741
H         12.34632        1.65025       -8.08356
H         13.63041        2.38640      -10.80151
H         12.89962        3.50176       -9.67677
H         10.67550        2.37588       -9.92074
H         11.36146        1.18829      -11.02249
H         11.96381        3.04119      -12.63564
H         11.23679        4.21433      -11.54155
H          9.01616        3.03566      -11.75542
H          9.74471        1.85994      -12.84689
H         10.29408        3.71478      -14.46972
H          9.55026        4.88264      -13.38023
H          7.34654        3.67383      -13.58936
H          8.09064        2.50423      -14.67659
H          8.61627        4.35730      -16.30394
H          7.86370        5.52128      -15.21889
H          6.40306        3.14458      -16.54908
H          6.26574        4.84550      -17.03165
H          5.64465        4.31853      -15.45661
H         14.79963       -3.40957      -11.19598
H         14.65147       -2.00189      -12.25678
H         12.16891       -2.54115      -12.53052
H         11.61215       -4.67623      -11.71531
