46

O          1.38729        0.24783        1.54976
C          0.49564        0.00847        0.52454
C         -0.24948        1.03454       -0.06313
C         -1.13052        0.74357       -1.10587
C         -1.26400       -0.56883       -1.56422
C         -0.51387       -1.58446       -0.96727
C          0.37030       -1.32323        0.08561
C          1.15604       -2.42447        0.75074
N          2.59213       -2.35420        0.41884
C          3.40536       -3.33713        1.10728
C          4.80643       -3.37167        0.48108
C          5.71193       -4.42555        1.16906
C          7.08061       -4.39960        0.60947
N          8.03550       -3.48444        0.88212
N          9.10376       -3.76374        0.15268
N          8.84620       -4.82613       -0.56966
N          7.59005       -5.24548       -0.31350
C          9.75673       -5.46584       -1.56056
C          9.57667       -6.96141       -1.56327
C         10.23069       -7.75413       -0.60717
C         10.03815       -9.13590       -0.59935
C          9.18997       -9.73165       -1.53950
C          8.53669       -8.94753       -2.49401
C          8.73051       -7.56299       -2.50923
H          1.33391        1.18501        1.79814
H         -0.13991        2.06009        0.29902
H         -1.71218        1.54760       -1.55774
H         -1.95118       -0.79998       -2.37763
H         -0.61907       -2.61363       -1.31687
H          0.77686       -3.39824        0.40415
H          0.99042       -2.38148        1.84752
H          2.92655       -1.41129        0.62828
H          2.92364       -4.32260        0.98586
H          3.49586       -3.16715        2.20399
H          5.28124       -2.38252        0.57417
H          4.71439       -3.58674       -0.59411
H          5.28197       -5.43327        1.06954
H          5.79147       -4.20162        2.24367
H          7.24342       -6.11282       -0.73155
H         10.75809       -5.14342       -1.24977
H          9.52767       -5.01831       -2.53857
H         10.90179       -7.29270        0.12064
H         10.55891       -9.75060        0.13503
H          9.04779      -10.81255       -1.53441
H          7.89123       -9.41386       -3.23845
H          8.24893       -6.95452       -3.27909
