103

Br         9.94950        1.81704       -4.50463
C          8.15436        2.50491       -4.85234
C          7.10080        1.63086       -4.18419
C          5.70803        2.22292       -4.45745
N          4.62794        1.41593       -3.86901
C          3.90635        0.39760       -4.40416
C          4.04398       -0.13252       -5.77097
C          3.50304        0.76278       -6.91822
C          4.31502        0.59801       -8.21009
S          5.79087        1.66858       -8.32044
C          7.19519        0.57564       -8.02501
S          7.05927       -0.88373       -7.21082
N          8.36152        1.06735       -8.48841
C          8.48380        2.27136       -9.33146
C          8.77255        3.55465       -8.54144
C          8.95340        4.77202       -9.45332
C          9.25690        6.05771       -8.67631
C          9.35733        7.30308       -9.56287
C          9.67476        8.58265       -8.78238
C          9.73630        9.83943       -9.65748
C         10.07102       11.10905       -8.87084
C          9.62986        0.37389       -8.18376
C          9.99662       -0.71189       -9.20035
C         11.29446       -1.42412       -8.80458
C         11.65115       -2.59510       -9.72666
C         12.94566       -3.30814       -9.32171
C         13.28044       -4.52356      -10.19245
C         14.58522       -5.22091       -9.79084
C         14.90626       -6.44926      -10.64595
N          3.10041       -0.09942       -3.44099
N          3.31861        0.57364       -2.32978
N          4.24047        1.48057       -2.56527
C          4.70183        2.43154       -1.55177
C          3.77731        3.65121       -1.42594
O          4.33673        4.40414       -0.38268
C          3.50677        5.49381        0.04869
C          4.16786        6.12701        1.26546
O          3.36038        7.22951        1.62237
C          3.79557        7.88685        2.81180
C          2.84568        9.05087        3.05617
O          3.23959        9.67299        4.26492
C          2.41862       10.78465        4.59516
H          8.04012        2.51582       -5.94002
H          8.15163        3.53486       -4.47612
H          7.29259        1.56500       -3.10287
H          7.14823        0.61373       -4.60021
H          5.51243        2.24914       -5.53972
H          5.60391        3.24804       -4.07490
H          3.53632       -1.10540       -5.77942
H          5.11921       -0.34368       -5.97039
H          3.48838        1.82427       -6.62747
H          2.45498        0.49436       -7.11670
H          3.71220        0.89400       -9.07878
H          4.65618       -0.43732       -8.35571
H          7.56361        2.37915       -9.92192
H          9.30075        2.07450      -10.04130
H          9.67500        3.41239       -7.92369
H          7.93923        3.74693       -7.84455
H          8.04156        4.91437      -10.05866
H          9.76798        4.57653      -10.17178
H         10.19826        5.92972       -8.11397
H          8.47039        6.21798       -7.91693
H          8.40904        7.43534      -10.11264
H         10.13240        7.14328      -10.33257
H         10.63599        8.45928       -8.25257
H          8.91396        8.72814       -7.99428
H          8.76989        9.96809      -10.17381
H         10.48523        9.69099      -10.45375
H          9.32624       11.30124       -8.08390
H         10.09728       11.99154       -9.52439
H         11.05375       11.02907       -8.38271
H          9.53077       -0.06824       -7.18377
H         10.41132        1.14679       -8.13725
H         10.09796       -0.27048      -10.20558
H          9.17247       -1.43958       -9.25211
H         11.19879       -1.79590       -7.76960
H         12.12698       -0.69894       -8.79129
H         11.74011       -2.23226      -10.76549
H         10.81855       -3.31993       -9.72874
H         12.86925       -3.62783       -8.26735
H         13.78429       -2.59070       -9.35763
H         13.34541       -4.21078      -11.24966
H         12.44823       -5.24807      -10.14361
H         14.52682       -5.51492       -8.72904
H         15.41552       -4.49768       -9.85773
H         14.11602       -7.21059      -10.56440
H         15.85097       -6.91858      -10.33898
H         14.99766       -6.18309      -11.70944
H          5.72779        2.73392       -1.79160
H          4.71924        1.87593       -0.60662
H          2.74947        3.31335       -1.19145
H          3.74000        4.22040       -2.37886
H          2.50062        5.12317        0.31310
H          3.40257        6.24213       -0.75726
H          5.19985        6.44387        1.01561
H          4.23251        5.38937        2.08910
H          4.83235        8.25560        2.69935
H          3.77159        7.19273        3.67260
H          1.80571        8.67420        3.12164
H          2.89341        9.76144        2.20732
H          2.79594       11.19027        5.54101
H          1.36301       10.48317        4.72568
H          2.46921       11.57025        3.81875
