74

C          3.98150        1.25104        0.98434
O          3.24696        0.18002        0.36871
C          3.92192       -0.97651        0.05919
C          5.29721       -1.13816        0.26080
C          5.92277       -2.33724       -0.09152
C          5.18925       -3.38616       -0.64298
C          3.81831       -3.22140       -0.83702
C          3.15738       -2.03451       -0.49287
C          1.67503       -1.96830       -0.75301
O          1.28746       -1.06211       -1.84481
C          0.60734        0.01873       -1.30922
N         -0.23366       -0.58109       -0.17058
C          0.78957       -1.52467        0.43776
C         -0.76987        0.45562        0.80824
C          0.27001        1.33354        1.49252
C         -0.37549        2.38233        2.42183
C          0.70525        3.24718        3.03283
C          1.29941        2.89252        4.25244
C          2.35581        3.64247        4.77534
C          2.83336        4.75787        4.08176
C          2.24423        5.12423        2.86802
C          1.18745        4.37296        2.34844
C         -1.39175       -1.41884       -0.73347
C         -2.47148       -0.65798       -1.49574
C         -3.54824       -1.62588       -2.06978
C         -4.77500       -1.78221       -1.14953
C         -4.51367       -2.30710        0.27633
C         -5.78682       -2.48932        1.05558
C         -6.39509       -3.64527        1.38004
C         -5.87799       -5.01492        1.02528
C         -7.69067       -3.63907        2.14822
C         -3.98688       -1.15485       -3.46364
H          4.76042        1.63514        0.30947
H          4.43366        0.92927        1.93407
H          3.25153        2.04255        1.18573
H          5.89213       -0.33230        0.68543
H          6.99618       -2.44125        0.06863
H          5.67630       -4.31953       -0.92170
H          3.23281       -4.03493       -1.27100
H          1.36729       -2.96326       -1.10416
H         -0.04323        0.46761       -2.06808
H          1.27085        0.76378       -0.84991
H          0.26774       -2.35954        0.91617
H          1.37012       -0.97008        1.17677
H         -1.36119       -0.11010        1.54318
H         -1.46825        1.07579        0.23233
H          0.87011        1.87381        0.74809
H          0.97132        0.73475        2.08952
H         -0.95506        1.88054        3.21221
H         -1.08188        3.00484        1.85015
H          0.92521        2.02688        4.80445
H          2.80022        3.36107        5.73066
H          3.65287        5.34823        4.49225
H          2.60061        6.00372        2.33039
H          0.72379        4.67294        1.40514
H         -1.80635       -1.94645        0.13464
H         -0.92349       -2.15830       -1.39516
H         -2.01485       -0.11109       -2.33403
H         -2.97019        0.08840       -0.85951
H         -3.08311       -2.62259       -2.18614
H         -5.48153       -2.47060       -1.63868
H         -5.29903       -0.81204       -1.08803
H         -3.87623       -1.59010        0.82678
H         -3.94949       -3.25222        0.22049
H         -6.27927       -1.55931        1.36018
H         -4.93431       -4.99974        0.46705
H         -6.61799       -5.55724        0.41556
H         -5.72630       -5.61991        1.93343
H         -8.02894       -2.62003        2.37308
H         -7.58804       -4.18605        3.09939
H         -8.48669       -4.14942        1.58269
H         -4.43048       -0.14846       -3.41936
H         -4.74272       -1.83000       -3.88652
H         -3.13973       -1.12086       -4.16350
