76

C          0.60041       -0.09422       -0.02814
C          2.13111       -0.12435       -0.01652
C          2.75851        0.26838       -1.35886
C          4.29071        0.27649       -1.34400
C          4.91840        0.63385       -2.69526
C          6.44941        0.69456       -2.66675
C          7.07566        0.99715       -4.03177
C          8.60603        1.07867       -4.00810
C          9.21878        1.32755       -5.39021
C         10.75067        1.38716       -5.39154
C         11.33616        1.56250       -6.79690
C         12.86749        1.57376       -6.82950
C         13.41363        1.64184       -8.27659
C         14.91216        1.58291       -8.34105
C         15.68026        2.76216       -8.55714
C         17.05339        2.73515       -8.64820
C         17.76134        1.50828       -8.50200
C         16.99529        0.31826       -8.22029
C         15.58994        0.38299       -8.16177
C         17.70263       -0.89093       -8.00100
C         19.06455       -0.90759       -8.06151
N         19.77981        0.22789       -8.37383
C         19.17142        1.41625       -8.61348
C         20.04111        2.59221       -8.99812
O         20.75749        3.01204       -7.85273
C         21.66562        4.10316       -8.14011
C         22.40051        4.45214       -6.86401
C         21.25479        0.07526       -8.46820
C         21.67437       -0.43942       -9.85275
C         23.17008       -0.26418      -10.07478
F         23.51720        1.05453      -10.02696
F         23.89627       -0.90488       -9.12377
F         23.54000       -0.74313      -11.27907
H          0.18304       -0.39169        0.94371
H          0.19276       -0.77828       -0.78760
H          0.22276        0.91355       -0.25705
H          2.47857       -1.13341        0.26369
H          2.50641        0.55182        0.77045
H          2.39216        1.26789       -1.65340
H          2.40308       -0.42400       -2.14263
H          4.65848       -0.71434       -1.02320
H          4.64255        0.98980       -0.57772
H          4.52262        1.60691       -3.03610
H          4.59623       -0.10285       -3.45232
H          6.84560       -0.26537       -2.29050
H          6.77064        1.45894       -1.93747
H          6.66676        1.94690       -4.41942
H          6.76515        0.22048       -4.75288
H          9.01481        0.14033       -3.59304
H          8.92111        1.87807       -3.31481
H          8.81683        2.26846       -5.80526
H          8.88901        0.53022       -6.07937
H         11.15138        0.46066       -4.94369
H         11.09089        2.21124       -4.74084
H         10.95291        2.49630       -7.24291
H         10.96982        0.74641       -7.44391
H         13.25626        0.66492       -6.34007
H         13.25800        2.42626       -6.24964
H         13.05713        2.56362       -8.75985
H         12.99548        0.79822       -8.84871
H         15.15745        3.71371       -8.66698
H         17.59088        3.66548       -8.82003
H         15.03123       -0.53610       -7.97383
H         17.16791       -1.81016       -7.76408
H         19.65982       -1.79788       -7.87234
H         19.41713        3.40257       -9.40640
H         20.72724        2.29604       -9.81728
H         21.08309        4.96265       -8.51898
H         22.36488        3.78878       -8.93716
H         21.69889        4.75138       -6.07473
H         23.08623        5.29018       -7.04799
H         22.99280        3.60105       -6.50287
H         21.55163       -0.62801       -7.68122
H         21.70668        1.04170       -8.22640
H         21.16411        0.11514      -10.65254
H         21.43490       -1.50392       -9.98043
