63

C          1.03573        0.50530      -10.56431
C          2.55566        0.68591      -10.54405
C          3.06882        1.35918       -9.26680
C          4.59083        1.52975       -9.22505
C          5.09391        2.15908       -7.92211
C          6.61886        2.29046       -7.84064
C          7.09636        2.85432       -6.49844
C          8.62029        2.86677       -6.32895
C          9.04021        3.35494       -4.93653
C         10.54610        3.19854       -4.64833
C         10.97470        1.70954       -4.48317
C         11.22383        1.53320       -2.99092
N         11.84242        2.84591       -2.57864
C         11.03630        3.90390       -3.34178
C          9.95743        4.41555       -2.37745
O         10.60353        4.62899       -1.12909
C          9.72161        5.12126       -0.11071
C         13.34167        2.91979       -2.79647
C         13.97990        4.03993       -1.98882
C         15.50632        4.05282       -2.14979
C         16.14476        5.28574       -1.49445
N         15.65310        6.51884       -2.12288
H          0.69983        0.02298      -11.49230
H          0.51672        1.47201      -10.48614
H          0.69654       -0.11936       -9.72436
H          2.86905        1.28002      -11.41912
H          3.04505       -0.29635      -10.65643
H          2.74613        0.76765       -8.39142
H          2.58640        2.34627       -9.15577
H          4.91615        2.14477      -10.08218
H          5.07075        0.54434       -9.36109
H          4.74108        1.55112       -7.06992
H          4.63231        3.15376       -7.79274
H          6.98350        2.92808       -8.66420
H          7.07599        1.29774       -8.00007
H          6.65513        2.25357       -5.68309
H          6.70203        3.87667       -6.36567
H          9.08503        3.50466       -7.09969
H          9.00452        1.84786       -6.50674
H          8.45922        2.79866       -4.18014
H          8.74642        4.41225       -4.83496
H         11.09763        3.63677       -5.49216
H         11.88450        1.48808       -5.05687
H         10.20061        1.01810       -4.83576
H         11.89363        0.71030       -2.71821
H         10.28681        1.42484       -2.42805
H         11.66780        3.05523       -1.57673
H         11.72986        4.72724       -3.55015
H          9.12652        3.69560       -2.25844
H          9.53163        5.35241       -2.77559
H         10.31574        5.20182        0.80513
H          8.88005        4.42789        0.05363
H          9.32907        6.11412       -0.38204
H         13.51540        3.04024       -3.87492
H         13.73984        1.93979       -2.49687
H         13.72222        3.91473       -0.92292
H         13.59576        5.02506       -2.29426
H         15.76597        4.04701       -3.22293
H         15.94915        3.14130       -1.71777
H         17.24361        5.17223       -1.52722
H         15.86619        5.31532       -0.42946
H         16.15546        6.70489       -2.99217
H         15.81959        7.32293       -1.51904
