80

C          0.75988       -0.34235        0.33633
C          2.28027       -0.45215        0.20638
C          2.79251       -0.13785       -1.20271
C          4.31591       -0.22262       -1.32989
C          4.83782        0.07951       -2.73765
C          6.36611        0.06756       -2.82920
C          6.90922        0.34042       -4.23517
C          8.43591        0.45498       -4.26938
C          9.01087        0.70538       -5.66697
C         10.52158        0.95860       -5.63900
C         11.13336        1.15608       -7.03403
C         12.60583        1.53255       -6.92407
N         13.30236        1.64344       -8.26813
C         12.87438        2.88616       -9.03880
C         12.94996        2.67641      -10.54652
C         12.67989        3.97242      -11.32662
S         14.00178        5.20796      -11.19210
C         13.32933        6.41879      -10.02406
S         11.89496        6.18420       -9.19781
N         14.11166        7.51103       -9.90063
C         13.75633        8.58717       -8.95505
C         12.89310        9.67282       -9.59540
C         15.34131        7.73812      -10.68094
C         16.60675        7.24738       -9.97506
C         14.80728        1.56125       -8.14276
C         15.26260        0.12309       -7.93776
O         14.62999       -0.63230       -8.96265
C         14.92808       -2.02265       -8.93635
C         14.00043       -2.71232       -9.93300
F         14.18320       -2.25368      -11.19109
F         14.23394       -4.04048       -9.92346
F         12.69580       -2.50773       -9.60849
H          0.42465       -0.57455        1.35642
H          0.25043       -1.03697       -0.34794
H          0.41261        0.67325        0.09481
H          2.60367       -1.46788        0.49013
H          2.76248        0.23080        0.92620
H          2.45829        0.87358       -1.49421
H          2.32392       -0.83070       -1.92374
H          4.65294       -1.22903       -1.02529
H          4.77771        0.47989       -0.61366
H          4.46335        1.06612       -3.06256
H          4.41893       -0.65341       -3.44919
H          6.74726       -0.90647       -2.47556
H          6.77279        0.82156       -2.13231
H          6.46774        1.27477       -4.62358
H          6.58007       -0.46009       -4.92003
H          8.88313       -0.46419       -3.85251
H          8.74696        1.27476       -3.59837
H          8.50660        1.57456       -6.12313
H          8.78943       -0.15661       -6.31923
H         11.02736        0.11690       -5.13584
H         10.72310        1.85178       -5.02335
H         10.57028        1.93740       -7.56745
H         11.02882        0.22572       -7.61859
H         13.14921        0.77114       -6.34828
H         12.74607        2.50288       -6.42677
H         13.03540        0.80975       -8.82128
H         13.52087        3.70760       -8.70266
H         11.85307        3.12724       -8.72949
H         12.19760        1.92945      -10.85205
H         13.93308        2.27528      -10.83979
H         11.75464        4.46595      -10.98775
H         12.60063        3.74733      -12.39807
H         14.70341        9.00779       -8.58606
H         13.22970        8.12593       -8.11048
H         13.39556       10.13823      -10.45439
H         12.68868       10.46140       -8.85907
H         11.93475        9.25713       -9.93005
H         15.40140        8.82016      -10.86538
H         15.22972        7.26049      -11.66431
H         16.73703        7.73651       -9.00031
H         17.48719        7.48118      -10.58830
H         16.57831        6.16120       -9.81907
H         15.11516        2.20963       -7.31314
H         15.22465        1.95486       -9.07742
H         14.98936       -0.26849       -6.94013
H         16.36363        0.08866       -8.02105
H         14.74366       -2.45940       -7.94006
H         15.97162       -2.21877       -9.23350
