95

C          1.38965        2.36281        1.63587
C          2.67461        1.69019        1.14921
C          3.39025        0.89668        2.25161
C          4.68761        0.29938        1.74495
O          5.38586       -0.32844        2.87515
C          6.66843       -0.65052        2.65501
O          7.27708       -0.47163        1.61774
C          7.31651       -1.28629        3.88305
C          8.70755       -0.67484        4.13573
N          9.59694       -1.61905        4.84527
C          9.63760       -1.33244        6.15843
N         10.19664       -2.12611        7.08040
N          9.06248       -0.14757        6.41179
C          8.77869        0.54165        5.11080
C          7.57879        1.47706        5.17352
C          7.43056        2.37248        3.93525
C          6.14220        3.19848        3.99455
C          5.84436        3.97468        2.71005
C          4.53528        4.76617        2.77904
C          4.17152        5.47188        1.47005
C          2.87860        6.28785        1.55783
C          2.51672        7.00907        0.25580
C          1.29063        7.91825        0.38148
C          0.94397        8.66906       -0.90807
C         -0.23318        9.63758       -0.75465
C         -0.56949       10.41011       -2.03478
C         -1.72599       11.39776       -1.85946
C          9.15113        0.54156        7.69243
C         10.42005        1.40791        7.81445
C         10.63599        1.84335        9.25723
C         11.95314        2.64832        9.56570
C         12.29846        3.94494        8.73018
C         11.31188        5.17458        8.66136
C         10.87441        5.96055        9.96102
C         11.99123        6.62507       10.85046
F         12.82665        7.36210       10.10007
F         11.39211        7.41975       11.75057
F         12.69817        5.68772       11.50587
F         10.06687        6.95714        9.51638
F         10.14636        5.13298       10.75127
F         11.89040        6.06043        7.81636
F         10.15511        4.73073        8.07733
F         13.49481        4.38785        9.17720
F         12.45634        3.54149        7.42939
F         11.95474        2.96139       10.87992
F         12.99123        1.79159        9.32371
F          9.56142        2.55623        9.70861
F         10.71963        0.71479       10.05128
H          0.91021        2.92996        0.82704
H          1.59051        3.06498        2.45825
H          0.66223        1.62365        2.00115
H          3.36144        2.45554        0.75171
H          2.44473        1.02059        0.30431
H          2.73406        0.09919        2.63450
H          3.60879        1.56257        3.10139
H          5.35510        1.06034        1.31754
H          4.52495       -0.47419        0.97970
H          7.44710       -2.35054        3.62951
H          6.66064       -1.23826        4.76102
H          9.15132       -0.41565        3.16596
H          9.77252       -2.55397        4.49046
H         10.57307       -3.03188        6.83117
H         10.30800       -1.82267        8.03977
H          9.67956        1.12579        4.84490
H          7.68956        2.13250        6.05196
H          6.65557        0.90085        5.33966
H          7.43388        1.76981        3.01453
H          8.30479        3.04035        3.85766
H          6.19106        3.89666        4.84792
H          5.29834        2.52068        4.20917
H          5.80173        3.26943        1.86169
H          6.67943        4.66029        2.48568
H          4.60336        5.51250        3.58944
H          3.71406        4.08735        3.06784
H          4.08045        4.72335        0.66281
H          5.00124        6.13543        1.16988
H          2.97675        7.03154        2.36808
H          2.04577        5.62695        1.85542
H          2.34648        6.26498       -0.54240
H          3.38040        7.61236       -0.07533
H          1.46812        8.65032        1.18928
H          0.41965        7.32076        0.70474
H          0.72085        7.94198       -1.70872
H          1.83194        9.22978       -1.24979
H         -0.00770       10.35619        0.05338
H         -1.12609        9.08037       -0.42010
H         -0.81279        9.69443       -2.83835
H          0.32887       10.95195       -2.37630
H         -2.64877       10.88295       -1.55296
H         -1.94157       11.93686       -2.79218
H         -1.49593       12.14830       -1.08831
H          9.10570       -0.20696        8.49514
H          8.24912        1.15240        7.81310
H         10.34514        2.29622        7.17546
H         11.30858        0.84381        7.49608
