54

O         -0.90890        0.97366        1.76026
N          0.09422        1.34416        0.85527
C          1.36151        1.52739        1.47111
C          1.48593        1.54618        2.87075
C          2.69971        1.83869        3.48523
C          3.81641        2.14538        2.71543
N          3.62881        2.14678        1.36813
C          2.48511        1.86463        0.68779
C          2.57627        1.93952       -0.80273
C          3.15248        0.63968       -1.42044
C          3.24917        0.70944       -2.95583
C          3.79761       -0.57843       -3.52567
C          2.93527       -1.63125       -3.86674
C          3.44036       -2.83926       -4.35138
C          4.81943       -3.01129       -4.49901
C          5.68882       -1.96964       -4.16398
C          5.17984       -0.76218       -3.68076
C          5.18496        2.48587        3.22920
C          5.17549        3.39814        4.47052
C          6.58901        3.88458        4.80610
S          6.61982        5.08609        6.15934
C          6.11273        6.57274        5.33774
S          5.94680        6.76286        3.70985
N          5.90293        7.60714        6.25217
C          5.73125        7.50964        7.64460
N          5.52887        8.67609        8.18820
C          5.57333        9.59377        7.14161
C          5.78866        8.96814        5.94822
O          0.19071        0.34906       -0.15764
H         -0.76396        0.02087        1.96328
H          0.60413        1.34708        3.47674
H          2.77507        1.83852        4.57047
H          4.43528        2.39986        0.79312
H          3.22113        2.79375       -1.07025
H          1.58542        2.15103       -1.22126
H          2.51921       -0.20892       -1.12692
H          4.15441        0.44259       -1.00375
H          3.89145        1.55578       -3.24844
H          2.25038        0.91013       -3.37511
H          1.85540       -1.49917       -3.76356
H          2.75692       -3.64468       -4.62286
H          5.21443       -3.95217       -4.88344
H          6.76496       -2.09457       -4.28913
H          5.86502        0.05291       -3.43422
H          5.75406        2.98063        2.42426
H          5.72193        1.54698        3.45195
H          4.75435        2.86974        5.33788
H          4.53798        4.27088        4.26870
H          7.06103        4.36829        3.93756
H          7.23692        3.06700        5.15560
H          5.73070        6.55342        8.15930
H          5.44535       10.65621        7.32348
H          5.88707        9.32135        4.93008
H         -0.51937        0.59918       -0.77990
