88

C          0.63943        0.00199        0.59017
C          2.16628       -0.00638        0.47944
C          2.72304       -1.26488       -0.19559
C          4.25042       -1.27309       -0.31316
C          4.81664       -2.52793       -0.98582
C          6.34446       -2.51885       -1.10001
C          6.93063       -3.77182       -1.75853
C          8.45947       -3.74379       -1.85980
C          9.06574       -5.00341       -2.48626
C         10.59515       -4.96312       -2.58154
C         11.20726       -6.25062       -3.14333
C         12.73702       -6.21220       -3.24221
C         13.33990       -7.52695       -3.74852
C         14.86552       -7.48360       -3.88577
C         15.43913       -8.83984       -4.36705
C         16.92305       -8.80163       -4.57908
C         17.77961       -9.23768       -3.55506
C         19.15119       -9.19888       -3.69093
N         19.72508       -8.73600       -4.83065
C         18.92199       -8.29519       -5.82791
C         17.53256       -8.30386       -5.75568
C         16.73470       -7.73776       -6.91483
C         17.17844       -8.14297       -8.33645
C         17.06145       -9.62082       -8.71475
C         15.62966      -10.25537       -8.69977
Br        14.32400       -9.23085       -9.73242
F         15.66559      -11.51989       -9.14969
F         15.20030      -10.30914       -7.40229
Br        17.84111       -9.86693      -10.50070
F         17.79815      -10.39660       -7.82814
C         21.24963       -8.77972       -5.00007
C         21.67767      -10.18126       -5.57445
C         21.28653      -11.37101       -4.68396
C         21.21988      -10.45487       -7.01623
C         21.68449       -7.65707       -5.96515
O         21.22534       -6.41011       -5.45567
C         21.91853       -8.49382       -3.64482
H          0.27537        0.91560        1.08017
H          0.27635       -0.85578        1.17595
H          0.16652       -0.05344       -0.40180
H          2.60913        0.09024        1.48542
H          2.49996        0.88295       -0.08196
H          2.27818       -1.36522       -1.20161
H          2.39420       -2.15608        0.36804
H          4.69301       -1.17025        0.69355
H          4.57639       -0.38055       -0.87619
H          4.37478       -2.63453       -1.99229
H          4.49709       -3.42142       -0.42085
H          6.78218       -2.40149       -0.09280
H          6.66063       -1.62696       -1.66953
H          6.49846       -3.89280       -2.76754
H          6.61833       -4.66454       -1.18834
H          8.88617       -3.60080       -0.85126
H          8.76890       -2.85939       -2.44438
H          8.64033       -5.15451       -3.49399
H          8.76141       -5.88562       -1.89587
H         11.01668       -4.76845       -1.57968
H         10.90012       -4.10674       -3.20845
H         10.78271       -6.45443       -4.14192
H         10.90569       -7.10193       -2.50829
H         13.16187       -5.97297       -2.25186
H         13.04003       -5.38672       -3.90997
H         12.89620       -7.78347       -4.72628
H         13.05836       -8.34598       -3.06462
H         15.32815       -7.21981       -2.92066
H         15.15247       -6.68501       -4.58979
H         14.93004       -9.13923       -5.29355
H         15.20650       -9.61163       -3.61895
H         17.36510       -9.62462       -2.62423
H         19.81534       -9.53385       -2.90279
H         19.42812       -7.92255       -6.71063
H         16.80747       -6.63886       -6.86854
H         15.67219       -7.96331       -6.77678
H         18.22676       -7.86755       -8.51761
H         16.58992       -7.56697       -9.06129
H         22.77988      -10.12150       -5.57597
H         20.20181      -11.55386       -4.69736
H         21.61148      -11.26467       -3.64134
H         21.76361      -12.27988       -5.07214
H         20.12514      -10.48150       -7.10794
H         21.58369      -11.44258       -7.32732
H         21.61075       -9.73325       -7.74438
H         21.32135       -7.82699       -6.99160
H         22.78556       -7.70528       -6.01050
H         21.63620       -5.69139       -5.96044
H         21.77670       -9.28624       -2.90314
H         21.57338       -7.54005       -3.22954
H         23.00005       -8.41471       -3.81098
