111

C         10.81653      -10.85507       -5.79741
C         10.37722      -10.76632       -4.33371
C         10.71265       -9.41924       -3.68389
C         10.28771       -9.32813       -2.21357
C         10.63375       -7.97445       -1.57941
C         10.25431       -7.90355       -0.11230
O         10.54626       -6.56188        0.36272
C         10.30552       -6.38026        1.73220
P         10.86820       -4.66719        2.06649
C          9.95996       -3.52818        0.97757
C         10.37557       -2.07449        1.21531
O         11.79036       -2.05845        1.30039
C         12.33043       -0.73952        1.48187
C         13.84591       -0.81786        1.35397
O         14.32821        0.48161        1.61892
C         15.73712        0.61691        1.42714
C         16.09074        2.07777        1.66925
O         17.47991        2.21934        1.43979
C         17.92467        3.55828        1.61489
C         10.72232       -4.23098        3.82370
C         11.34135       -5.24883        4.80390
C         12.84560       -5.49301        4.63019
C         13.41441       -6.43492        5.69829
C         14.92621       -6.65747        5.58261
C         15.46993       -7.65110        6.61584
C         16.99442       -7.80244        6.58406
C         17.52601       -8.84320        7.57592
C         19.05414       -8.95783        7.58643
C         19.58643      -10.02007        8.55473
C         21.11575      -10.11976        8.57443
C         21.65401      -11.18763        9.53288
C         23.18424      -11.26778        9.56514
C         23.72826      -12.33421       10.52166
C         25.25901      -12.39918       10.56255
C         25.80630      -13.46285       11.51993
C         27.33705      -13.51993       11.56998
C         27.88044      -14.58133       12.53192
C         29.41129      -14.64275       12.58916
C         29.93919      -15.70718       13.55490
H         10.57156      -11.83398       -6.23035
H         11.90236      -10.71033       -5.89840
H         10.32244      -10.08782       -6.41164
H         10.85460      -11.57541       -3.75553
H          9.29098      -10.94407       -4.26190
H         10.22940       -8.60719       -4.25510
H         11.79890       -9.23737       -3.76074
H         10.77241      -10.14005       -1.64441
H          9.20142       -9.50574       -2.13463
H         10.11252       -7.16642       -2.11788
H         11.71317       -7.77700       -1.67817
H         10.83205       -8.62786        0.49085
H          9.17862       -8.10757        0.03936
H         10.88691       -7.07075        2.37563
H          9.23628       -6.47104        2.01493
H         12.22144       -4.64414        1.67998
H          8.88416       -3.67677        1.15182
H         10.18701       -3.85769       -0.04700
H          9.91717       -1.68051        2.14327
H         10.01697       -1.44803        0.37840
H         12.05342       -0.34454        2.47580
H         11.92398       -0.05815        0.71471
H         14.12517       -1.15247        0.33577
H         14.25426       -1.55718        2.07391
H         16.01850        0.32763        0.39759
H         16.29163       -0.03321        2.12951
H         15.82518        2.36553        2.70589
H         15.50460        2.72082        0.98326
H         19.00083        3.56750        1.40695
H         17.75239        3.91017        2.64854
H         17.41506        4.24750        0.91699
H          9.64706       -4.08972        4.01705
H         11.20169       -3.24319        3.91627
H         10.79192       -6.20235        4.74780
H         11.15124       -4.86028        5.81635
H         13.38075       -4.52819        4.66199
H         13.05745       -5.92331        3.63381
H         12.89349       -7.40660        5.63960
H         13.18197       -6.02839        6.69753
H         15.44558       -5.68979        5.69505
H         15.17116       -7.01641        4.56723
H         15.00018       -8.63704        6.45233
H         15.15800       -7.33382        7.62628
H         17.46031       -6.82395        6.79574
H         17.31608       -8.07445        5.56314
H         17.08678       -9.82837        7.33929
H         17.17265       -8.59300        8.59176
H         19.49038       -7.97704        7.84566
H         19.41052       -9.18474        6.56603
H         19.15918      -11.00301        8.28862
H         19.22241       -9.80032        9.57391
H         21.54029       -9.13773        8.84826
H         21.48036      -10.32993        7.55335
H         21.24213      -12.17266        9.25061
H         21.27848      -10.98599       10.55168
H         23.59361      -10.28210        9.84896
H         23.56067      -11.46652        8.54605
H         23.32829      -13.32231       10.23292
H         23.34482      -12.14110       11.53921
H         25.65716      -11.41027       10.85113
H         25.64316      -12.59180        9.54516
H         25.41422      -14.45317       11.22794
H         25.41631      -13.27380       12.53577
H         27.72925      -12.52914       11.86042
H         27.72859      -13.71181       10.55522
H         27.48833      -15.57222       12.24124
H         27.48711      -14.38969       13.54616
H         29.80342      -13.65339       12.88025
H         29.80474      -14.83563       11.57655
H         29.59286      -15.52092       14.58260
H         31.03765      -15.72760       13.57401
H         29.59364      -16.71205       13.26908
