56

C          8.64592        7.90467       -3.94620
C          9.15373        6.46272       -3.87660
C          8.08281        5.42824       -4.24530
C          8.58730        3.98406       -4.15063
C          7.51423        2.96091       -4.48057
O          8.06956        1.64488       -4.31072
C          7.12869        0.60642       -4.48998
C          7.80988       -0.70760       -4.12766
N          8.87740       -1.11186       -5.06522
C         10.03628       -0.46617       -5.35653
N         10.79724        0.11718       -4.42231
C         10.71314       -0.01931       -2.97095
C         12.09636       -0.07482       -2.29669
C         13.05924        1.09629       -2.50423
C         12.52084        2.53709       -2.22515
Br        11.71540        2.72152       -0.45543
F         13.49226        3.44978       -2.37577
F         11.56415        2.81439       -3.16522
Br        14.67053        0.78724       -1.44537
F         13.44511        1.12965       -3.85078
N         10.48368       -0.47469       -6.63087
Si        12.16050       -0.22453       -7.31374
C         11.95885       -0.77505       -9.08843
C         12.57676        1.59858       -7.19629
C         13.34486       -1.30706       -6.35315
H          9.43133        8.61992       -3.66799
H          7.79721        8.06288       -3.26485
H          8.30768        8.16173       -4.96065
H          9.52504        6.24965       -2.85995
H         10.02147        6.34204       -4.54703
H          7.71623        5.62980       -5.26670
H          7.21202        5.55707       -3.57942
H          8.95735        3.78619       -3.13173
H          9.44328        3.83928       -4.83066
H          7.15133        3.07975       -5.51973
H          6.64319        3.07560       -3.80744
H          6.75044        0.57997       -5.53264
H          6.25308        0.73760       -3.82348
H          7.07624       -1.52353       -4.13719
H          8.19978       -0.64050       -3.10560
H          8.56039       -1.71668       -5.81673
H         11.45627        0.80874       -4.76872
H         10.22528       -0.97584       -2.74713
H         10.09221        0.78801       -2.55416
H         12.64057       -0.96772       -2.63517
H         11.93028       -0.19014       -1.21831
H          9.75279       -0.64885       -7.31736
H         11.18547       -0.20013       -9.61696
H         11.71413       -1.84344       -9.15934
H         12.90348       -0.61707       -9.62777
H         11.84328        2.20728       -7.74251
H         13.56152        1.77049       -7.65570
H         12.64223        1.98036       -6.16823
H         13.00426       -2.35145       -6.33590
H         13.49592       -0.96535       -5.32239
H         14.32604       -1.28533       -6.85027
