69

C          1.13984        0.57637       11.12301
C          2.66464        0.58381       10.99619
C          3.16443       -0.03731        9.68773
C          4.69058       -0.05014        9.55687
C          5.18915       -0.68423        8.25428
C          6.71654       -0.71427        8.13204
C          7.21329       -1.36248        6.83600
C          8.74095       -1.40350        6.71361
C          9.21704       -2.08694        5.42622
C         10.72050       -2.08603        5.21410
O         11.35765       -2.84562        6.27285
C         12.75602       -2.99663        6.10680
C         13.26928       -3.71932        7.35897
N         12.69297       -2.92423        8.52742
C         12.80357       -3.54574        9.91528
C         14.22900       -3.41377       10.45595
C         14.78325       -1.98372       10.49276
C         16.15735       -1.90006       11.17252
C         16.73468       -0.48434       11.18936
C         12.31399       -4.98939        9.78572
O         13.06730       -5.67926        8.80327
C         12.81761       -5.18990        7.48333
C         13.57724       -6.09845        6.52096
O         12.83273       -7.28279        6.37156
C         13.52284       -8.27153        5.60844
H          0.81182        1.02754       12.06930
H          0.74254       -0.44887       11.08751
H          0.66951        1.14119       10.30456
H          3.10819        0.03995       11.84748
H          3.03665        1.61957       11.07115
H          2.72858        0.51193        8.83484
H          2.78309       -1.07065        9.60829
H          5.12352       -0.59371       10.41548
H          5.07163        0.98376        9.62900
H          4.76598       -0.13537        7.39526
H          4.79829       -1.71395        8.17784
H          7.13782       -1.25825        8.99678
H          7.10813        0.31594        8.19997
H          6.79686       -0.81826        5.97111
H          6.81623       -2.39007        6.76670
H          9.15409       -1.93227        7.59088
H          9.14030       -0.37458        6.75278
H          8.77432       -1.57705        4.55481
H          8.85181       -3.12606        5.39028
H         11.12778       -1.05741        5.22359
H         10.97914       -2.55077        4.24697
H         13.25412       -2.01120        6.00140
H         13.00045       -3.58500        5.20528
H         14.36411       -3.65353        7.42719
H         11.70395       -2.75847        8.25478
H         13.14907       -2.00061        8.55085
H         12.10678       -2.96408       10.53989
H         14.90420       -4.07755        9.89440
H         14.20065       -3.81491       11.48141
H         14.07578       -1.31802       11.01757
H         14.89514       -1.57539        9.46793
H         16.85430       -2.58224       10.65906
H         16.06356       -2.27770       12.20340
H         16.87189       -0.09405       10.17014
H         17.71430       -0.46595       11.68353
H         16.07733        0.21179       11.73000
H         11.23339       -5.01783        9.54434
H         12.46493       -5.51434       10.73812
H         11.73603       -5.26098        7.25883
H         14.58076       -6.29962        6.94831
H         13.72561       -5.59823        5.54167
H         12.85867       -9.14019        5.54670
H         14.46646       -8.56782        6.09876
H         13.74442       -7.90991        4.58859
