20

Br         2.24158       -1.75354        1.65304
C          3.54222       -0.76145        0.70403
C          3.70485       -0.81326       -0.62350
C          2.90884       -1.62270       -1.62765
C          1.41086       -1.44054       -1.56301
C          0.54848       -2.50451       -1.32557
C         -0.83208       -2.28419       -1.29699
N         -1.37051       -1.07854       -1.47545
N         -0.54968       -0.09086       -1.70609
C          0.82164       -0.16442       -1.78303
C          1.55988        0.98932       -2.08360
C          2.27289        1.92705       -2.37386
Br        -1.39908        1.58038       -1.95958
Br         5.18585        0.15108       -1.33754
H          4.17751       -0.17004        1.35914
H          3.13409       -2.69212       -1.49326
H          3.24517       -1.35449       -2.64013
H          0.94388       -3.50502       -1.15011
H         -1.55592       -3.07859       -1.11478
H          2.88573        2.77185       -2.62451
