82

C          1.06697        2.21549       -2.46520
C          2.01213        1.02323       -2.29984
C          3.46986        1.36715       -2.62840
C          4.42266        0.17396       -2.46923
C          5.85383        0.57296       -2.78688
O          6.79440       -0.53453       -2.53689
C          7.08041       -1.33818       -3.55915
O          6.64445       -1.28431       -4.69041
C          8.11989       -2.37103       -3.08564
N          8.57064       -3.24947       -4.16208
C          8.30047       -4.60291       -4.22161
C          8.82784       -5.06807       -5.38837
N          9.40324       -3.99213       -6.03813
C          9.24703       -2.88141       -5.28259
C          9.74077       -1.51606       -5.60606
C         10.91265       -1.03384       -4.71971
O         12.07248       -1.90707       -4.75738
C         12.79300       -2.01777       -5.91347
O         12.47334       -1.51602       -6.97113
C         14.01509       -2.88228       -5.69585
S         13.67302       -4.62182       -6.17105
C         11.23734        0.43299       -5.02637
O         12.28476        0.93224       -4.17753
C         11.91482        1.24069       -2.89822
O         10.77879        1.12388       -2.48012
C         13.10381        1.70195       -2.09254
S         13.87350        0.26882       -1.24698
C         10.11566       -4.05001       -7.34432
C          9.78627       -5.28151       -8.18129
C          8.34145       -5.45113       -8.69850
C          7.89750       -4.26365       -9.57438
C          6.45137       -4.36296      -10.10061
C          5.98588       -3.09355      -10.75566
C          5.74560       -2.87974      -12.06278
C          5.91028       -3.91468      -13.14475
C          5.26348       -1.53628      -12.54461
C          8.24164       -6.79725       -9.43142
H          0.03203        1.94040       -2.22242
H          1.07611        2.59385       -3.49796
H          1.35233        3.04750       -1.80480
H          1.68042        0.19419       -2.94703
H          1.95385        0.64421       -1.26587
H          3.80349        2.19345       -1.97692
H          3.52942        1.75032       -3.66174
H          4.11253       -0.64432       -3.13850
H          4.37478       -0.21066       -1.43792
H          6.21534        1.36583       -2.12036
H          5.96950        0.88674       -3.83268
H          7.67450       -2.99689       -2.30271
H          8.96852       -1.84545       -2.62858
H          7.75575       -5.11563       -3.43835
H          8.83109       -6.06637       -5.80336
H          8.90625       -0.80988       -5.48453
H         10.04154       -1.47721       -6.65869
H         10.62841       -1.08801       -3.66158
H         14.37477       -2.84064       -4.66289
H         14.80245       -2.54462       -6.37911
H         13.08106       -4.98098       -5.00742
H         10.32207        1.02285       -4.87096
H         11.60345        0.56501       -6.04902
H         12.79212        2.45387       -1.36027
H         13.88467        2.11321       -2.74225
H         12.88272        0.09190       -0.34114
H         11.19417       -4.03780       -7.12729
H          9.86447       -3.13005       -7.88538
H         10.10319       -6.18977       -7.64153
H         10.46716       -5.22397       -9.04675
H          7.65156       -5.49136       -7.83456
H          8.58501       -4.15871      -10.43183
H          7.98371       -3.32516       -8.99965
H          5.78361       -4.59539       -9.25104
H          6.36624       -5.21017      -10.79444
H          5.83090       -2.24882      -10.07388
H          6.30207       -4.87211      -12.78220
H          6.59243       -3.54664      -13.92748
H          4.94786       -4.11107      -13.64407
H          5.16317       -0.81753      -11.72146
H          4.28405       -1.62677      -13.04201
H          5.95145       -1.11197      -13.29361
H          8.85429       -6.79322      -10.34626
H          7.20993       -7.02833       -9.72231
H          8.59716       -7.62361       -8.79897
