98

C          0.90999        0.68613        0.01555
C          2.42754        0.49023       -0.03468
C          2.93471        0.01057       -1.39938
C          4.44775       -0.22500       -1.44331
C          4.96077       -0.70451       -2.80497
C          6.46751       -0.97902       -2.82507
C          6.99578       -1.45913       -4.18056
C          8.49420       -1.77514       -4.16578
C          9.04956       -2.25511       -5.51026
C         10.53959       -2.60408       -5.45081
C         11.13337       -3.06915       -6.78405
C         12.61367       -3.44778       -6.67609
C         13.26447       -3.82087       -8.01118
C         14.73869       -4.21113       -7.86681
C         15.44176       -4.47927       -9.20110
C         16.92209       -4.83386       -9.03131
C         17.65981       -4.98420      -10.36516
C         19.16608       -5.25639      -10.14791
C         19.95640       -5.31258      -11.40244
N         20.55807       -6.42598      -11.87204
N         21.13633       -6.13354      -13.01643
N         20.92877       -4.85998      -13.26964
N         20.17739       -4.30433      -12.28145
C         19.76185       -2.89038      -12.26780
C         20.14804       -2.15391      -10.97784
O         20.04334       -0.79393      -11.31313
C         20.11301        0.07094      -10.16833
C         19.92955        1.50322      -10.64953
O         19.91249        2.30549       -9.48796
C         19.71340        3.69167       -9.76419
C         19.64418        4.41695       -8.42768
O         19.38644        5.78080       -8.70483
C         19.25076        6.55996       -7.52409
C         21.29288       -4.25527      -14.54387
C         20.04567       -4.11059      -15.44670
O         18.91379       -4.18634      -15.01735
O         20.44048       -3.89032      -16.69188
C         19.37698       -3.70513      -17.70787
C         20.02635       -3.80462      -19.06687
H          0.58042        1.03821        1.00287
H          0.37943       -0.25468       -0.19540
H          0.57709        1.42526       -0.72884
H          2.73115       -0.23563        0.73914
H          2.93177        1.43635        0.22662
H          2.65481        0.74840       -2.17247
H          2.41265       -0.92373       -1.67328
H          4.72180       -0.96574       -0.67102
H          4.97141        0.70671       -1.16430
H          4.71330        0.04691       -3.57557
H          4.41997       -1.62265       -3.09546
H          6.70797       -1.73343       -2.05496
H          7.00951       -0.06389       -2.52711
H          6.78774       -0.69297       -4.94823
H          6.43627       -2.35845       -4.49319
H          8.69262       -2.54384       -3.39801
H          9.05233       -0.87863       -3.84233
H          8.88330       -1.47671       -6.27588
H          8.47969       -3.13816       -5.84909
H         10.69549       -3.38996       -4.69060
H         11.10431       -1.72514       -5.09212
H         11.01237       -2.27034       -7.53717
H         10.55950       -3.93240       -7.16421
H         12.72297       -4.28787       -5.96795
H         13.17057       -2.60499       -6.22920
H         13.17832       -2.96872       -8.70849
H         12.70737       -4.65158       -8.47813
H         14.82097       -5.10318       -7.22216
H         15.27502       -3.40502       -7.33509
H         15.35258       -3.58527       -9.84364
H         14.92538       -5.29280       -9.73876
H         17.01986       -5.76477       -8.44798
H         17.41735       -4.04728       -8.43441
H         17.51605       -4.06538      -10.95675
H         17.22813       -5.80442      -10.95906
H         19.31419       -6.22726       -9.65606
H         19.59419       -4.49550       -9.47704
H         18.68272       -2.85774      -12.46095
H         20.26062       -2.38435      -13.10136
H         21.17705       -2.43049      -10.66739
H         19.46222       -2.40896      -10.14888
H         21.08741       -0.04241       -9.66047
H         19.31378       -0.18620       -9.44972
H         18.98067        1.59009      -11.21540
H         20.75565        1.78989      -11.33003
H         18.77096        3.84567      -10.32225
H         20.54308        4.09096      -10.37666
H         20.59792        4.29348       -7.87730
H         18.83934        3.97521       -7.80703
H         19.06135        7.59184       -7.84202
H         20.17119        6.53221       -6.91186
H         18.40431        6.20968       -6.90505
H         22.02790       -4.93585      -14.98890
H         21.77705       -3.28219      -14.38373
H         18.92500       -2.72110      -17.52145
H         18.61714       -4.47785      -17.53579
H         20.80936       -3.04702      -19.19638
H         19.26268       -3.63844      -19.83857
H         20.46213       -4.79835      -19.23028
