111

C          1.34252        0.38698        0.10978
C          2.86277        0.23394        0.01252
C          3.41571       -0.90366        0.87835
C          4.93765       -1.06091        0.79563
C          5.48388       -2.19458        1.66943
C          7.00664       -2.35388        1.60282
C          7.53591       -3.48578        2.48938
C          9.05822       -3.65697        2.44756
C          9.55945       -4.78317        3.35736
C         11.08165       -4.96131        3.36344
C         11.54203       -6.08047        4.30318
C         13.06221       -6.26317        4.37821
C         13.46745       -7.35920        5.36982
C         14.98259       -7.53708        5.53118
C         15.31586       -8.59021        6.59491
C         16.82203       -8.72108        6.84605
N         17.09463       -9.70424        7.92505
C         17.00025       -9.35095        9.22147
C         17.16555      -10.31369       10.20533
C         17.41955      -11.64211        9.85838
C         17.47663      -11.90118        8.44503
N         17.32129      -10.94431        7.51537
C         17.68413      -13.23106        7.89610
N         17.50099      -14.38875        8.48261
N         17.76421      -15.36205        7.56007
C         18.10164      -14.73591        6.44368
O         18.06648      -13.37513        6.57858
S         18.52168      -15.52490        4.97434
C         19.34497      -14.20678        3.99635
C         19.93690      -14.87918        2.75358
C         20.82764      -13.92800        1.94343
C         21.45942      -14.61165        0.72452
C         22.43800      -13.71446       -0.04008
C         23.09334      -14.40858       -1.24023
C         24.11924      -13.52939       -1.95953
C         17.66997      -12.66804       10.90419
C         19.19403      -12.83653       11.16889
C         19.51318      -14.04802       12.05278
S         19.65969      -15.61001       11.14438
C         18.06260      -16.39948       11.37040
S         16.83721      -15.72749       12.28917
N         17.97807      -17.59490       10.74736
C         19.07118      -18.24342       10.00899
C         18.56941      -18.73144        8.64698
O         17.43994      -19.58817        8.77978
C         16.37297      -18.89907        9.43061
C         16.77241      -18.43114       10.82844
H          0.97763        1.20858       -0.52199
H          1.02781        0.59793        1.14288
H          0.82706       -0.53129       -0.20957
H          3.34797        1.18058        0.30529
H          3.14971        0.06163       -1.03877
H          2.93378       -1.85266        0.58289
H          3.12354       -0.73428        1.93010
H          5.41866       -0.11076        1.08805
H          5.23041       -1.23522       -0.25486
H          5.00558       -3.14511        1.37372
H          5.18322       -2.02162        2.71807
H          7.48672       -1.40385        1.89708
H          7.31112       -2.53385        0.55666
H          7.05533       -4.43484        2.19261
H          7.22164       -3.30482        3.53266
H          9.54149       -2.70793        2.73944
H          9.37852       -3.85204        1.40903
H          9.08368       -5.73302        3.05565
H          9.21623       -4.59174        4.38960
H         11.56025       -4.01206        3.66189
H         11.43456       -5.16953        2.33830
H         11.07657       -7.03195        3.99132
H         11.15624       -5.87717        5.31794
H         13.53208       -5.30907        4.67450
H         13.45986       -6.50085        3.37648
H         13.01918       -8.31865        5.05903
H         13.02920       -7.12706        6.35636
H         15.43739       -6.57138        5.81162
H         15.43393       -7.82261        4.56622
H         14.91921       -9.57371        6.29642
H         14.81700       -8.32072        7.54123
H         17.26452       -7.76514        7.15916
H         17.35607       -9.08968        5.96289
H         16.79868       -8.30108        9.42621
H         17.10580      -10.01983       11.25292
H         20.13033      -13.76234        4.62274
H         18.60823      -13.43528        3.73752
H         19.12377      -15.26653        2.11855
H         20.53477      -15.75209        3.06361
H         21.62738      -13.53781        2.59647
H         20.24129      -13.05222        1.61673
H         20.66258      -14.95622        0.04308
H         21.98815      -15.52221        1.05646
H         23.22611      -13.36643        0.65118
H         21.91487      -12.80484       -0.38431
H         22.31058      -14.72298       -1.95086
H         23.58059      -15.33730       -0.89794
H         23.65923      -12.60588       -2.34145
H         24.56803      -14.05353       -2.81408
H         24.93684      -13.23655       -1.28412
H         17.24768      -13.64152       10.61665
H         17.18096      -12.35990       11.83929
H         19.57141      -11.92436       11.65971
H         19.73447      -12.92716       10.21458
H         18.76260      -14.20289       12.84440
H         20.49832      -13.91963       12.52187
H         19.44283      -19.09285       10.60696
H         19.89864      -17.54025        9.85986
H         19.35439      -19.32137        8.15482
H         18.31849      -17.85747        8.01868
H         15.53854      -19.60902        9.49931
H         16.05629      -18.02940        8.82351
H         16.99119      -19.29936       11.47275
H         15.97719      -17.83843       11.29538
