53

C          1.91029       -0.94054        2.43001
C          3.24048       -0.20510        2.60315
C          3.75549        0.38447        1.26960
C          5.09257        1.04903        1.44945
O          6.17814        0.49955        1.36483
O          4.95880        2.37233        1.77590
C          6.19358        3.07773        2.00271
C          6.76145        2.80724        3.42087
C          8.27049        2.73243        3.42264
C          8.86524        1.63604        2.80131
C         10.27298        1.47847        2.69510
C         11.04657        2.48512        3.31582
N         10.43322        3.52235        3.90801
C          9.09827        3.71707        3.99701
C          8.61543        4.99373        4.65743
C          9.61395        5.59462        5.65018
O         10.83708        5.49662        5.55293
O          8.98878        6.29367        6.58899
C          9.82103        7.02940        7.56323
C         10.10370        6.17560        8.78288
C          8.28678        6.08367        3.59854
N         10.84309        0.42901        2.04643
C         12.29407        0.27546        2.03597
C         10.00471       -0.61947        1.46677
H          1.55980       -1.34304        3.38948
H          2.00670       -1.78236        1.72984
H          1.12841       -0.27135        2.04379
H          4.00082       -0.89253        3.00575
H          3.12576        0.60956        3.33520
H          3.03046        1.11049        0.87684
H          3.88688       -0.41965        0.53315
H          5.93607        4.13479        1.86872
H          6.92084        2.78057        1.23534
H          6.37489        1.83566        3.75753
H          6.38324        3.55525        4.12758
H          8.19842        0.88928        2.36836
H         12.13171        2.48774        3.35948
H         10.98762        4.25331        4.41833
H          7.69948        4.77473        5.22239
H          9.20656        7.90442        7.80443
H         10.73913        7.34826        7.05468
H          9.17309        5.82930        9.25030
H         10.65014        6.77773        9.52183
H         10.72578        5.30745        8.53054
H          9.18991        6.36850        3.04280
H          7.87456        6.97530        4.08596
H          7.54703        5.70938        2.88099
H         12.70044        0.12434        3.05008
H         12.78552        1.15017        1.58136
H         12.55335       -0.60095        1.43559
H          9.22987       -0.19449        0.81345
H          9.51277       -1.23002        2.24163
H         10.63550       -1.27541        0.85974
