115

C          0.66431        0.27997        0.09764
C          2.18874        0.14984        0.07212
C          2.71549       -0.98774        0.95282
C          4.24112       -1.11977        0.93634
C          4.77399       -2.24783        1.82516
C          6.30116       -2.36346        1.81535
C          6.84533       -3.47969        2.71256
C          8.37490       -3.56020        2.72072
C          8.93873       -4.66906        3.61502
C         10.46996       -4.70847        3.63283
C         11.06133       -5.82822        4.49503
C         12.59304       -5.81750        4.52532
C         13.21491       -6.96682        5.32488
C         14.74634       -6.92124        5.35177
C         15.39522       -8.11564        6.05925
C         16.92698       -8.05942        6.05561
C         17.59490       -9.30791        6.64176
C         19.12627       -9.25863        6.58437
C         19.79541      -10.57071        7.01191
C         21.32451      -10.53229        6.88595
C         22.02679      -11.85672        7.18914
N         21.52706      -12.92021        6.20955
C         22.69304      -13.73765        5.69673
C         23.87473      -12.76632        5.80794
C         23.57530      -11.84161        7.02020
C         24.35161      -12.24712        8.28338
C         24.15591      -11.28570        9.44990
O         23.26528      -10.45653        9.50759
O         25.09055      -11.50098       10.38963
C         25.01887      -10.70460       11.61949
C         24.38606      -11.50951       12.74358
C         24.45129      -10.76203       14.08138
C         23.85257      -11.56037       15.24440
C         23.92937      -10.81959       16.58049
C         22.82244      -15.04118        6.51254
C         21.49021      -15.77077        6.68822
O         20.45926      -15.12040        6.98348
N         21.48229      -17.10522        6.56476
C         20.28294      -17.92798        6.79056
C         19.43697      -18.14376        5.53078
C         20.14093      -18.91636        4.41121
C         19.23959      -19.14113        3.19512
H          0.31846        1.10606       -0.53911
H          0.29863        0.47016        1.11778
H          0.18011       -0.64114       -0.25969
H          2.64543        1.09961        0.39837
H          2.52893       -0.00818       -0.96534
H          2.26196       -1.94044        0.62630
H          2.37357       -0.83110        1.99129
H          4.69141       -0.16325        1.25557
H          4.58159       -1.28178       -0.10161
H          4.33189       -3.20700        1.50272
H          4.42778       -2.08876        2.86164
H          6.73884       -1.39989        2.13129
H          6.64813       -2.52665        0.77962
H          6.42823       -4.44857        2.38559
H          6.48300       -3.32701        3.74454
H          8.78567       -2.58826        3.04712
H          8.73719       -3.70827        1.68792
H          8.54974       -5.64560        3.27603
H          8.56435       -4.53499        4.64526
H         10.85142       -3.73557        3.99038
H         10.84210       -4.81516        2.59835
H         10.70856       -6.80433        4.11763
H         10.67369       -5.74358        5.52548
H         12.93960       -4.85485        4.94071
H         12.97519       -5.85298        3.48969
H         12.88616       -7.92859        4.89312
H         12.82798       -6.95015        6.35861
H         15.07472       -5.98506        5.83610
H         15.12311       -6.87219        4.31476
H         15.06475       -9.04831        5.56847
H         15.03024       -8.17424        7.09935
H         17.26275       -7.16638        6.61029
H         17.27844       -7.92074        5.01789
H         17.24015      -10.19580        6.08826
H         17.26857       -9.45074        7.68612
H         19.49749       -8.43518        7.21681
H         19.44013       -9.01589        5.55367
H         19.36785      -11.38514        6.39666
H         19.52396      -10.81031        8.05372
H         21.73973       -9.79084        7.58211
H         21.61415      -10.20496        5.86903
H         21.74533      -12.20575        8.19217
H         21.05307      -12.45335        5.42890
H         20.84955      -13.64555        6.64242
H         22.47079      -13.99999        4.65292
H         23.93722      -12.17052        4.88654
H         24.82951      -13.29868        5.90878
H         23.87749      -10.81571        6.76739
H         25.42705      -12.31413        8.06366
H         24.05971      -13.24802        8.64357
H         24.46289       -9.78234       11.40704
H         26.06585      -10.46060       11.84286
H         24.91014      -12.47494       12.83183
H         23.33683      -11.73118       12.48863
H         23.92559       -9.79593       13.99318
H         25.50321      -10.51931       14.31247
H         24.37599      -12.52787       15.32649
H         22.80096      -11.80136       15.01471
H         24.97108      -10.59232       16.85054
H         23.49879      -11.41803       17.39428
H         23.38148       -9.86691       16.54109
H         23.19645      -14.82408        7.52501
H         23.57614      -15.67481        6.02594
H         22.34394      -17.56882        6.29597
H         19.69138      -17.42388        7.56515
H         20.62926      -18.88997        7.19481
H         19.09081      -17.16546        5.16003
H         18.53185      -18.69033        5.84152
H         20.48417      -19.88996        4.80068
H         21.04780      -18.37328        4.09402
H         18.34249      -19.71485        3.46840
H         19.76291      -19.69765        2.40705
H         18.90341      -18.18638        2.76504
