51

C          2.74433        1.00512        1.90789
C          4.11746        0.53090        1.47953
O          4.77967        1.54874        0.63618
C          4.56752        1.47138       -0.68096
O          3.92112        0.63509       -1.27447
C          5.25272        2.64005       -1.40526
S          7.06894        2.57555       -1.27991
C          7.62194        1.10982       -2.42440
C          6.63560        0.78875       -3.56036
C          6.46929        1.73300       -4.77830
C          7.49050        1.45855       -5.89415
C          5.04630        1.59117       -5.34223
C          9.02428        1.49714       -2.90309
O          9.80160        1.87874       -1.77001
C          7.68207       -0.05226       -1.41909
C          7.54481        4.16450       -2.07850
C          7.16765        5.37273       -1.21728
C          7.91542        5.46412        0.11771
S          7.18461        6.79525        1.09897
O          7.48665        8.06608        0.47817
O          5.83301        6.39588        1.40396
O          8.04827        6.66736        2.46034
H          2.30710        0.25958        2.58631
H          2.07117        1.11235        1.04814
H          2.80332        1.95998        2.44531
H          4.07247       -0.40476        0.90835
H          4.80196        0.42042        2.32838
H          4.98248        3.57884       -0.90047
H          4.94247        2.66268       -2.45483
H          5.65413        0.59140       -3.10351
H          6.95906       -0.19973       -3.93298
H          6.59526        2.78007       -4.44968
H          7.37518        0.43018       -6.26850
H          8.53409        1.57897       -5.57603
H          7.32738        2.13747       -6.74173
H          4.86743        0.56114       -5.68457
H          4.89825        2.25653       -6.20285
H          4.27450        1.82490       -4.59471
H          8.97676        2.30892       -3.64694
H          9.44091        0.60618       -3.40593
H         10.73422        1.95098       -2.02767
H          6.68644       -0.31108       -1.03672
H          8.35288        0.16543       -0.58085
H          8.06732       -0.93713       -1.94562
H          7.07303        4.21603       -3.06676
H          8.63325        4.07165       -2.19183
H          6.08252        5.40193       -1.03873
H          7.39222        6.26435       -1.82260
H          8.98057        5.69561       -0.01455
H          7.81558        4.55751        0.73065
H          8.59263        7.47493        2.54482
