74

C          0.90054       -5.75748        7.86436
C          2.39375       -5.45922        7.71023
C          2.90279       -5.62007        6.27255
C          4.40602       -5.36312        6.12544
C          4.92816       -5.55321        4.69693
C          6.44371       -5.36220        4.57505
C          6.97852       -5.60234        3.15828
C          8.50484       -5.49662        3.07176
C          9.03229       -5.82659        1.67181
N         10.50650       -5.82514        1.57379
C         11.21541       -4.66964        1.43838
N         12.54037       -4.69048        1.69368
C         13.39453       -3.49590        1.75690
C         14.16113       -3.16965        0.46751
C         13.29768       -2.84044       -0.75286
N         12.27537       -1.81946       -0.42684
N         10.62351       -3.52678        1.06771
C         11.20661       -7.05433        1.88658
O         11.72968       -6.95394        3.20820
C         12.46884       -8.02661        3.71465
C         12.67735       -9.19838        2.98319
C         13.42988      -10.25661        3.51870
C         13.61524      -11.53340        2.74031
C         13.96800      -10.09420        4.79810
C         13.74668       -8.91767        5.51635
C         12.99383       -7.85162        5.01126
C         12.76614       -6.61953        5.87792
C         13.28763       -5.30445        5.26486
C         11.29935       -6.48057        6.33048
H          0.57031       -5.63110        8.90445
H          0.66650       -6.79019        7.56540
H          0.29129       -5.08767        7.23928
H          2.97181       -6.12513        8.37356
H          2.60370       -4.43299        8.05672
H          2.34461       -4.93678        5.60818
H          2.67178       -6.64026        5.91774
H          4.95586       -6.03931        6.80371
H          4.63865       -4.33932        6.46756
H          4.41135       -4.85212        4.01852
H          4.66204       -6.56556        4.34511
H          6.95238       -6.05077        5.27212
H          6.71615       -4.34405        4.90314
H          6.51210       -4.88530        2.46007
H          6.66380       -6.60464        2.81864
H          8.96573       -6.19152        3.79145
H          8.83589       -4.48620        3.36351
H          8.61129       -5.14876        0.91231
H          8.70593       -6.82993        1.36499
H         12.83648       -5.47399        2.27348
H         14.11495       -3.68175        2.56355
H         12.78318       -2.63918        2.07843
H         14.82953       -4.00430        0.21001
H         14.81549       -2.31210        0.69695
H         12.76356       -3.74156       -1.09404
H         13.95707       -2.53321       -1.58077
H         12.71989       -0.96087       -0.09203
H         11.76152       -1.55657       -1.27014
H          9.65535       -3.57360        0.77421
H         11.20100       -2.74761        0.63624
H         12.02307       -7.21572        1.15960
H         10.48591       -7.88131        1.80469
H         12.25800       -9.31651        1.98347
H         13.63365      -11.35165        1.65730
H         12.79124      -12.23603        2.94067
H         14.54864      -12.03891        3.01791
H         14.56402      -10.89332        5.24141
H         14.17331       -8.81662        6.51655
H         13.36546       -6.79970        6.78472
H         12.60880       -4.92913        4.48700
H         14.29089       -5.43366        4.83279
H         13.35495       -4.52691        6.03855
H         10.63701       -6.26400        5.48090
H         11.19744       -5.65878        7.05342
H         10.94599       -7.40157        6.81243
