64

C          0.93173       -0.13048       -0.20761
C          2.45894       -0.10162       -0.10529
C          2.96183        0.44049        1.23720
C          4.48675        0.41975        1.38476
C          4.96765        0.97101        2.73102
C          6.48086        0.86307        2.94358
C          6.93248        1.40949        4.30304
C          8.43454        1.22578        4.55847
C          8.84909        1.74657        5.92152
O         10.26732        1.46786        6.09836
C         10.76682        1.85720        7.34784
P         12.54003        1.40203        7.27046
C         13.30691        1.96596        8.77380
N         12.71179        2.07399        9.93001
N         13.66303        2.50536       10.82585
C         14.79185        2.63307       10.14458
O         14.63774        2.29539        8.81338
S         16.34796        3.15329       10.64297
C         16.04417        3.44724       12.43517
C         17.31580        4.04841       13.02737
C         12.84924       -0.35618        6.94573
C         12.47027       -0.82316        5.52406
C         12.82547       -2.30049        5.28837
C         11.95936       -3.27394        6.09546
S         12.50463       -4.97142        5.80320
O         12.18652       -5.34722        4.44225
O         13.83473       -5.09892        6.34177
O         11.50503       -5.77553        6.79812
H          0.59971       -0.51713       -1.18063
H          0.50375        0.87596       -0.08733
H          0.49175       -0.77044        0.57172
H          2.87417        0.51043       -0.92367
H          2.85739       -1.11915       -0.25760
H          2.51257       -0.14854        2.05652
H          2.59391        1.47277        1.37370
H          4.94614        0.99838        0.56435
H          4.84917       -0.61640        1.26353
H          4.45233        0.43232        3.54587
H          4.65816        2.02641        2.82566
H          7.00957        1.40017        2.13714
H          6.78650       -0.19425        2.85556
H          6.36230        0.90470        5.10198
H          6.67267        2.47948        4.37191
H          9.01910        1.74322        3.78113
H          8.69330        0.15594        4.49440
H          8.28909        1.24639        6.73207
H          8.68924        2.83598        6.00871
H         10.30935        1.33324        8.21085
H         10.71382        2.94711        7.54230
H         13.11905        2.14611        6.21616
H         15.78807        2.48190       12.88822
H         15.18441        4.12240       12.51998
H         18.18190        3.38466       12.90293
H         17.16500        4.20070       14.10409
H         17.55343        5.02253       12.58001
H         12.30582       -0.89887        7.73617
H         13.92566       -0.50152        7.14001
H         13.01464       -0.21332        4.78687
H         11.40049       -0.64781        5.34636
H         13.88797       -2.47489        5.51844
H         12.69774       -2.51351        4.21724
H         10.90006       -3.22443        5.80688
H         12.04274       -3.13469        7.18279
H         10.90013       -6.30206        6.24010
