118

C         18.33618       16.79653       18.57600
C         18.28315       17.27875       17.12410
C         18.20667       16.13609       16.10541
C         18.16364       16.60966       14.64913
C         18.10748       15.46637       13.63055
C         18.10400       15.94199       12.17467
C         18.04818       14.80279       11.15166
C         18.10547       15.28312        9.69856
C         18.04604       14.15075        8.66800
C         18.18064       14.63980        7.22298
C         18.10113       13.52764        6.17183
C         18.31087       14.04148        4.74417
C         18.22224       12.96530        3.65709
C         18.43928       13.52796        2.24804
C         18.38538       12.48757        1.12493
C         18.48006       13.10253       -0.27698
C         18.50157       12.06364       -1.40514
C         18.36492       12.64246       -2.82371
C         19.43551       13.66227       -3.24956
C         20.86377       13.10413       -3.25888
C         21.90898       14.04382       -3.89176
C         23.34599       13.48211       -3.85297
C         23.85640       13.86381       -2.46934
N         23.18562       15.21490       -2.13441
C         22.08110       15.39843       -3.19260
C         22.61769       15.16114       -0.71778
C         22.06235       16.46725       -0.16113
C         21.34381       16.19508        1.16741
C         20.89220       17.46454        1.89526
C         20.17865       17.14068        3.21024
C         19.81984       18.35824        4.06613
C         19.19265       17.95222        5.40324
C         18.85957       19.12095        6.33407
C         18.29226       18.65887        7.67979
C         17.98551       19.79648        8.65817
C         17.45236       19.29978       10.00461
C         24.19373       16.33993       -2.21762
O         24.81533       16.25147       -3.45310
C         25.63131       17.40990       -3.76622
C         26.19998       17.22165       -5.15533
H         18.39906       17.63815       19.27954
H         19.20976       16.15101       18.75106
H         17.43981       16.21377       18.83592
H         19.17218       17.89570       16.90820
H         17.41492       17.94555       16.98784
H         17.31490       15.51943       16.31613
H         19.07361       15.46616       16.24527
H         19.05082       17.23537       14.44432
H         17.29077       17.27069       14.50463
H         17.20807       14.85370       13.81783
H         18.96813       14.79308       13.79094
H         19.00853       16.54953       11.99146
H         17.24874       16.62121       12.01275
H         17.12715       14.21433       11.30866
H         18.88524       14.10614       11.33637
H         19.03310       15.86353        9.54738
H         17.27948       15.99134        9.51200
H         17.09710       13.59802        8.78445
H         18.84758       13.42093        8.88080
H         19.14019       15.17518        7.11293
H         17.39803       15.39111        7.01656
H         17.12221       13.02239        6.24324
H         18.85719       12.75466        6.39674
H         19.29620       14.53515        4.68529
H         17.56893       14.83166        4.53081
H         17.23744       12.46945        3.70617
H         18.96854       12.17652        3.85787
H         19.41675       14.04055        2.21879
H         17.68440       14.31100        2.05315
H         17.44700       11.91179        1.19942
H         19.19866       11.75332        1.26336
H         19.38475       13.73764       -0.32913
H         17.62852       13.78960       -0.42795
H         17.67129       11.35615       -1.25033
H         19.41825       11.45374       -1.32527
H         17.37956       13.12690       -2.91514
H         18.36037       11.81192       -3.54851
H         19.37562       14.54652       -2.59187
H         19.18816       14.02519       -4.26087
H         20.87808       12.16535       -3.83639
H         21.16302       12.81858       -2.23579
H         21.60802       14.23649       -4.93246
H         23.96779       13.94805       -4.62785
H         23.37443       12.39485       -3.99741
H         24.94117       13.99199       -2.40509
H         23.52909       13.15692       -1.69842
H         22.44883       16.15500       -3.89373
H         21.18386       15.77290       -2.69043
H         23.43333       14.78787       -0.08192
H         21.83695       14.38951       -0.75032
H         21.35609       16.93185       -0.86815
H         22.87102       17.19454        0.00926
H         22.01199       15.62175        1.83388
H         20.47292       15.54610        0.97932
H         20.22674       18.05449        1.24149
H         21.77030       18.10318        2.09618
H         20.82052       16.46705        3.80576
H         19.26362       16.56502        2.99364
H         19.12924       19.01684        3.51131
H         20.72837       18.95707        4.25392
H         19.88302       17.26591        5.92450
H         18.27932       17.36259        5.21392
H         18.14134       19.79853        5.83967
H         19.77029       19.72072        6.50874
H         19.00564       17.95955        8.14904
H         17.37414       18.07028        7.50634
H         17.25529       20.48487        8.20016
H         18.89998       20.39195        8.82079
H         16.52943       18.71467        9.87695
H         17.22460       20.13412       10.68187
H         18.18339       18.65147       10.50842
H         24.89373       16.20580       -1.37025
H         23.64214       17.28773       -2.09242
H         26.43209       17.49915       -3.01143
H         24.99936       18.31415       -3.70545
H         26.83103       16.32517       -5.20611
H         26.81909       18.08885       -5.41949
H         25.39991       17.13433       -5.90173
