69

C          0.91364       -0.47241       -0.32688
C          2.42990       -0.40860       -0.52726
C          3.17260       -1.50069        0.25855
C          4.68523       -1.38313        0.06608
S          5.49700       -2.72583        1.02994
C          7.09064       -2.12478        1.14254
N          7.61339       -0.99561        0.64420
N          8.89992       -0.95773        1.05056
C          9.12725       -2.04404        1.76558
O          8.00953       -2.84002        1.86099
C         10.33366       -2.37860        2.43521
N         11.38088       -1.58282        2.40085
C         12.53516       -2.05926        3.18173
C         11.89890       -3.17533        4.05708
C         10.62800       -3.58601        3.26418
C         11.53477       -2.67837        5.46771
C         12.74899       -2.37636        6.34854
C         12.36098       -1.80004        7.71051
C         13.58415       -1.34789        8.50557
O         14.71082       -1.34648        8.07319
O         13.33769       -0.91090        9.77399
C         13.67168       -2.48907        2.23996
O         14.77830       -2.75810        3.07785
C         16.00100       -3.03302        2.44682
C         16.48096       -2.18729        1.44203
C         17.73075       -2.40033        0.85148
C         18.25228       -1.48006       -0.22190
C         18.48924       -3.48879        1.30726
C         18.00574       -4.31687        2.31693
C         16.75190       -4.12426        2.91851
C         16.29605       -5.06961        4.01994
C         16.12767       -4.36578        5.37938
C         15.05216       -5.88686        3.62213
H          0.40993        0.31796       -0.89816
H          0.64273       -0.34252        0.73080
H          0.50430       -1.43649       -0.66136
H          2.80451        0.58000       -0.21458
H          2.66950       -0.50356       -1.59883
H          2.82267       -2.49357       -0.06948
H          2.92866       -1.41643        1.32989
H          5.07779       -0.42898        0.43902
H          4.98354       -1.50470       -0.98343
H         11.37908       -0.71366        1.86404
H         12.91390       -1.22738        3.79490
H         12.59736       -4.01808        4.13681
H          9.78023       -3.86132        3.90644
H         10.79731       -4.44178        2.58801
H         10.91197       -3.44917        5.95113
H         10.89317       -1.78059        5.38623
H         13.43329       -1.66768        5.85836
H         13.33859       -3.29356        6.49440
H         11.79417       -2.53548        8.30644
H         11.69633       -0.92596        7.58975
H         12.38871       -0.97680        9.98106
H         13.87409       -1.67161        1.52567
H         13.38885       -3.38530        1.65264
H         15.89101       -1.32476        1.12614
H         17.53629       -0.68187       -0.45538
H         18.45920       -2.03112       -1.15090
H         19.19540       -1.00658        0.08730
H         19.47061       -3.68455        0.87176
H         18.61833       -5.15269        2.66139
H         17.11777       -5.79490        4.13725
H         15.33005       -3.61403        5.35297
H         17.05205       -3.85200        5.67373
H         15.88670       -5.09805        6.16353
H         14.16974       -5.24398        3.49596
H         14.81678       -6.63043        4.39675
H         15.21555       -6.42125        2.67640
