47

N          2.32957       -4.44068        0.06657
C          1.84798       -3.95812       -1.23609
C          2.50621       -2.62397       -1.60403
C          4.03146       -2.71272       -1.72103
C          4.67680       -1.38151       -2.11910
C          6.21660       -1.36457       -2.07431
P          7.04022       -2.64437       -3.07459
C          6.42626       -2.75502       -4.81223
C          7.13853       -1.73918       -5.70941
O          7.20201       -0.49601       -5.00802
C          6.55056       -4.19075       -5.37340
C          5.51622       -5.18159       -4.83811
C          8.85819       -2.50496       -2.99888
C          9.45327       -3.56596       -2.02281
N          9.09400       -4.89347       -2.51539
N         10.90510       -3.39279       -2.06534
N          8.75830       -3.38654       -0.73539
H          2.01597       -5.39772        0.22918
H          1.92518       -3.88064        0.81954
H          0.74963       -3.83713       -1.28964
H          2.11652       -4.71521       -1.99083
H          2.24331       -1.86805       -0.84347
H          2.07271       -2.26646       -2.55256
H          4.27639       -3.49476       -2.46288
H          4.44092       -3.06673       -0.76193
H          4.33899       -0.59130       -1.42987
H          4.33328       -1.06812       -3.11796
H          6.58085       -1.55266       -1.05179
H          6.61366       -0.39862       -2.41597
H          6.75096       -3.89340       -2.49736
H          5.36078       -2.47754       -4.74368
H          6.57008       -1.64520       -6.64997
H          8.14971       -2.10649       -5.96478
H          7.57215        0.18412       -5.59268
H          7.56875       -4.57321       -5.19794
H          6.44230       -4.11241       -6.46725
H          5.61826       -5.35399       -3.75763
H          5.63417       -6.15559       -5.32943
H          4.49188       -4.83341       -5.03219
H          9.11236       -1.48017       -2.69070
H          9.27872       -2.65977       -4.00060
H          9.80146       -5.20945       -3.17983
H          9.04574       -5.57861       -1.76114
H         11.19746       -2.45705       -1.77702
H         11.36780       -4.06768       -1.45361
H          8.97961       -4.15238       -0.09403
H          9.08875       -2.53314       -0.28104
