46

N          1.69559        0.70095        0.07965
C          3.10080        0.32387        0.09354
C          3.31380       -0.83605        1.08420
C          4.76231       -1.33441        1.08462
C          4.93921       -2.48142        2.08725
N          6.34347       -2.93681        2.14227
N          7.20970       -2.61444        3.07620
N          8.40443       -3.07920        2.72413
C          8.26383       -3.69049        1.54785
N          6.97515       -3.61626        1.16708
C          9.35261       -4.38172        0.74113
C          9.60618       -3.72264       -0.67743
C          9.91805       -2.17550       -0.76238
C         11.16829       -1.53171       -0.03822
C         12.64265       -2.01300       -0.35089
C         13.25033       -1.92804       -1.80883
C         13.37984       -0.54924       -2.57376
C         14.20644        0.61275       -1.90653
F         15.40707        0.17313       -1.49864
F         14.37762        1.58443       -2.81484
F         13.54261        1.12370       -0.85199
F         13.98348       -0.85120       -3.74835
F         12.13146       -0.07949       -2.83681
F         14.48826       -2.46484       -1.70804
F         12.49700       -2.73398       -2.60839
F         13.44071       -1.30858        0.48450
F         12.70796       -3.32645        0.00296
F         11.07705       -0.20396       -0.27341
F         10.98392       -1.74015        1.29734
F          9.93810       -1.85766       -2.06842
F          8.82341       -1.55696       -0.19120
F         10.54276       -4.43846       -1.30769
F          8.41063       -3.87535       -1.35032
F         10.47819       -4.43332        1.46202
F          8.92000       -5.65550        0.49235
H          1.43951        1.19790       -0.77096
H          1.44441        1.28955        0.87304
H          3.79546        1.14953        0.34868
H          3.37180       -0.01342       -0.91921
H          2.62008       -1.64838        0.81764
H          3.03491       -0.50229        2.09759
H          5.45387       -0.51996        1.35178
H          5.03897       -1.67668        0.07287
H          4.32220       -3.35916        1.84468
H          4.72112       -2.17364        3.11778
H          6.50847       -3.94516        0.31895
