69

C          1.11837       -0.26686       -1.45932
C          2.58801       -0.49159       -1.82321
C          3.08430       -1.90851       -1.51167
C          4.55020       -2.13718       -1.89337
C          5.07160       -3.53849       -1.55583
C          6.51482       -3.76530       -2.01733
C          7.09391       -5.12888       -1.62055
C          8.49498       -5.35300       -2.20453
C          9.13600       -6.64720       -1.74055
O         10.39241       -6.79862       -2.46744
C         11.26582       -7.75880       -1.99652
N         12.65754       -7.09909       -2.05356
C         12.84694       -6.02552       -0.99746
C         12.94618       -6.56456        0.40329
O         11.70373       -6.92137        1.03409
C         12.41405       -5.77178        1.52580
C         13.76517       -8.13268       -2.14924
C         13.97535       -8.52679       -3.61084
C         14.66660       -9.88924       -3.74701
S         14.48716      -10.59162       -5.40494
C         12.79187      -11.19407       -5.35803
S         11.83300      -11.10609       -3.98361
N         12.39499      -11.74405       -6.52431
C         13.19562      -11.79479       -7.75595
C         12.42252      -11.11486       -8.89229
O         11.14365      -11.70500       -9.07868
C         10.36401      -11.62450       -7.88728
C         11.05402      -12.31706       -6.71209
H          0.79769        0.75675       -1.69614
H          0.94208       -0.42957       -0.38586
H          0.46066       -0.95572       -2.00964
H          3.21730        0.23816       -1.28557
H          2.73756       -0.28420       -2.89660
H          2.45020       -2.64158       -2.04136
H          2.94741       -2.11462       -0.43515
H          5.18041       -1.38519       -1.38621
H          4.67560       -1.95318       -2.97513
H          4.41730       -4.29651       -2.02061
H          5.00010       -3.70376       -0.46659
H          7.15925       -2.96772       -1.60772
H          6.56308       -3.65698       -3.11493
H          6.42042       -5.93196       -1.96494
H          7.12590       -5.20721       -0.52014
H          9.15292       -4.51038       -1.93292
H          8.43847       -5.36508       -3.30472
H          8.49461       -7.51586       -1.96386
H          9.35272       -6.63787       -0.65847
H         11.33215       -8.64570       -2.65207
H         11.08585       -8.05486       -0.95238
H         12.63487       -6.59612       -2.95389
H         11.98690       -5.35091       -1.09825
H         13.76258       -5.48001       -1.26869
H         13.77313       -7.25195        0.61398
H         12.86547       -5.89094        2.51360
H         11.93455       -4.80829        1.32898
H         13.45181       -8.99396       -1.54334
H         14.66810       -7.70163       -1.69831
H         14.54704       -7.74907       -4.14018
H         12.99087       -8.61503       -4.09499
H         14.23805      -10.61468       -3.04032
H         15.75294       -9.82815       -3.59013
H         13.38720      -12.85090       -8.00540
H         14.16108      -11.29607       -7.61148
H         12.96517      -11.23351       -9.83927
H         12.32208      -10.03326       -8.67287
H          9.40868      -12.11830       -8.10718
H         10.16620      -10.56501       -7.63120
H         11.16793      -13.39350       -6.91977
H         10.48912      -12.18838       -5.78240
