74

C          0.33300        6.23414       10.66373
C          1.85532        6.24700       10.50273
C          2.42224        4.91301       10.00468
C          3.94630        4.90703        9.84937
C          4.50547        3.56948        9.35387
C          6.03124        3.55080        9.21643
C          6.58600        2.20934        8.72634
C          8.11346        2.18095        8.61086
C          8.66977        0.83756        8.12796
C         10.19903        0.80842        8.03364
C         10.75650       -0.54209        7.56589
C         12.27955       -0.57622        7.36812
C         13.08214       -0.37385        8.66015
C         14.59451       -0.43363        8.42764
C         15.43903       -0.25266        9.71079
C         15.17273       -1.30947       10.68963
C         14.97232       -2.18028       11.50476
C         15.21051        1.13679       10.38800
N         16.54276        1.44305       10.93459
C         17.51796        0.73790       10.43980
C         16.97929       -0.21822        9.42801
C         18.93911        0.94091       10.79639
C         19.73783        1.53201        9.59697
C         19.17873        2.86986        9.11151
C         19.96300        3.47552        7.94277
C         19.21541        4.64105        7.28228
N         17.93623        4.17922        6.71375
H         -0.04390        7.20265       11.02044
H          0.01431        5.46771       11.38599
H         -0.16784        6.01472        9.70895
H          2.32623        6.50377       11.46701
H          2.14609        7.04892        9.80292
H          1.95535        4.65864        9.03662
H          2.12412        4.10936       10.70131
H          4.41221        5.16068       10.81823
H          4.24613        5.70946        9.15223
H          4.04834        3.32148        8.37982
H          4.19332        2.76655       10.04486
H          6.48724        3.79957       10.19134
H          6.34600        4.35153        8.52396
H          6.14120        1.96648        7.74549
H          6.25837        1.40769        9.41148
H          8.55586        2.42646        9.59314
H          8.44272        2.98073        7.92396
H          8.23907        0.59514        7.14105
H          8.33198        0.03654        8.80864
H         10.61564        1.07156        9.02171
H         10.53694        1.60017        7.34078
H         10.27776       -0.81356        6.61135
H         10.46379       -1.32922        8.28242
H         12.56868        0.19615        6.63369
H         12.56373       -1.54355        6.92194
H         12.79461       -1.14226        9.39635
H         12.81387        0.59782        9.10795
H         14.89836        0.34803        7.71021
H         14.86667       -1.40091        7.97720
H         14.78300       -2.95899       12.21557
H         14.46497        1.11615       11.19017
H         14.94096        1.91485        9.65680
H         16.69684        2.18841       11.61511
H         17.45716       -1.20403        9.48390
H         17.18969        0.19412        8.42397
H         19.36498       -0.03678       11.07209
H         19.02128        1.60607       11.66902
H         19.75267        0.80045        8.77375
H         20.77970        1.63754        9.93348
H         19.15846        3.58957        9.94938
H         18.13454        2.75399        8.77308
H         20.14947        2.69682        7.18214
H         20.95385        3.81923        8.27819
H         19.88065        5.12044        6.54192
H         18.98707        5.40699        8.04024
H         18.10269        3.69026        5.83208
H         17.34419        4.97687        6.48161
