77

F          2.64293        0.86252        1.28996
C          2.33921       -0.08526        0.29744
C          2.79380        0.45319       -1.05241
C          4.31678        0.66051       -1.10899
C          4.81620        1.43633       -2.32681
N          4.30267        2.87765       -2.22594
C          4.74449        3.77388       -3.36083
C          6.26672        3.70710       -3.48033
O          6.66058        2.34246       -3.62279
C          6.34624        1.51907       -2.49707
C          6.97674        0.15307       -2.73463
C          8.48793        0.22286       -2.95408
O          8.94068       -1.11307       -3.00658
C         10.33116       -1.23148       -3.31312
C         10.64404       -2.67442       -3.64268
O         10.10948       -2.97452       -4.92022
C         10.35024       -4.31762       -5.32430
C          9.73722       -4.49136       -6.70638
O          9.99774       -5.81736       -7.12931
C          9.49712       -6.07926       -8.43097
C          6.78711        4.47513       -4.69116
C          6.61297        5.99683       -4.59590
C          7.22481        6.77808       -5.77820
C          6.47141        6.49087       -7.09128
C          7.08378        7.12688       -8.35577
C          6.38133        6.67637       -9.60820
C          5.38581        7.31182      -10.25377
C          4.80959        8.63425       -9.82014
C          4.76743        6.72161      -11.49388
C          7.26095        8.27583       -5.44463
H          1.25375       -0.25524        0.31834
H          2.85839       -1.01956        0.56287
H          2.23458        1.39166       -1.22345
H          2.47302       -0.24731       -1.83952
H          4.80619       -0.32285       -1.11844
H          4.66173        1.16024       -0.18742
H          4.38203        1.04556       -3.26078
H          4.64015        3.26836       -1.33231
H          3.27582        2.86093       -2.15773
H          4.38123        4.78643       -3.14374
H          4.26553        3.39745       -4.27450
H          6.71826        4.12158       -2.55206
H          6.78113        1.97774       -1.58037
H          6.50721       -0.32866       -3.60643
H          6.79927       -0.49537       -1.86489
H          8.97163        0.77958       -2.12214
H          8.72509        0.75815       -3.89164
H         10.94284       -0.90371       -2.45062
H         10.58481       -0.59514       -4.18154
H         10.21315       -3.33867       -2.86757
H         11.74348       -2.81441       -3.63235
H          9.89368       -5.03199       -4.61272
H         11.43584       -4.52894       -5.36555
H         10.18212       -3.75627       -7.40608
H          8.64738       -4.29410       -6.66304
H          9.75604       -7.11671       -8.67224
H          9.95271       -5.40851       -9.18299
H          8.39823       -5.96169       -8.47466
H          6.30077        4.07012       -5.59174
H          7.85620        4.22937       -4.77969
H          7.07929        6.35069       -3.66051
H          5.54295        6.26601       -4.52799
H          8.26802        6.43071       -5.89994
H          5.42720        6.83854       -6.99311
H          6.41334        5.40315       -7.26013
H          8.14888        6.84602       -8.41552
H          7.06151        8.22254       -8.27201
H          6.70683        5.71083      -10.01043
H          5.28444        9.04129       -8.91968
H          3.73078        8.53778       -9.61801
H          4.90494        9.38342      -10.62215
H          5.21856        5.75601      -11.75482
H          4.88669        7.39860      -12.35486
H          3.68269        6.57302      -11.36638
H          6.24249        8.68473       -5.35025
H          7.77817        8.85342       -6.22083
H          7.78570        8.45999       -4.49628
