35

C          1.53455        0.16454        0.91540
C          2.37399        0.11943       -0.12223
C          2.92085       -1.15243       -0.69038
N          4.44194       -1.22680       -0.52851
C          4.83403       -1.56601        0.89166
O          6.16256       -1.18690        0.99624
C          6.69522       -1.28946        2.34943
C          8.11793       -0.77818        2.33390
C          5.12404       -2.13485       -1.53886
C          5.20250       -1.47602       -2.91251
C          5.92921       -2.37420       -3.92083
S          5.89455       -1.56081       -5.53972
O          4.53413       -1.58562       -6.03480
O          6.64131       -0.33573       -5.42175
O          6.78067       -2.59366       -6.40882
H          1.12749        1.11029        1.27188
H          1.20305       -0.73985        1.43075
H          2.66165        1.04262       -0.63656
H          2.72594       -1.22377       -1.76866
H          2.50789       -2.04587       -0.20305
H          4.82082       -0.27706       -0.67847
H          4.66251       -2.65145        1.02707
H          4.16613       -0.99333        1.55951
H          6.64567       -2.34478        2.66832
H          6.05604       -0.69121        3.02212
H          8.74765       -1.37650        1.66309
H          8.53989       -0.84517        3.34527
H          8.15846        0.27171        2.01679
H          4.55171       -3.07314       -1.55153
H          6.12521       -2.33209       -1.13487
H          5.74378       -0.51882       -2.83661
H          4.19719       -1.25524       -3.30329
H          5.43762       -3.34861       -4.04631
H          6.98631       -2.52734       -3.66517
H          6.18882       -3.03256       -7.05133
