79

C          3.22171        1.63360        0.00718
C          1.76114        1.27581       -0.03687
C          1.16723        0.81208       -1.22203
C         -0.19163        0.50641       -1.27622
C         -0.99754        0.65876       -0.14166
C         -0.41608        1.11182        1.04976
C          0.94511        1.41187        1.09787
C         -2.48796        0.37372       -0.20078
C         -3.32145        1.57907       -0.47849
N         -4.39208        1.86137        0.20409
C         -5.18822        3.00697       -0.30984
C         -4.53965        3.19951       -1.69582
C         -3.11423        2.60931       -1.54962
C         -2.06023        3.66799       -1.09857
C         -1.60772        4.54800       -2.26955
C         -0.70808        5.68519       -1.77448
S          0.14943        6.56737       -3.10458
C          1.59760        5.53000       -3.32942
S          1.91320        4.16493       -2.43275
N          2.40573        5.99409       -4.32509
C          2.16303        7.24836       -5.00344
C          1.72683        7.23659       -6.33270
C          1.53026        8.44498       -7.00218
C          1.76910        9.65772       -6.34868
C          2.21110        9.66311       -5.02282
C          2.41483        8.45925       -4.34692
C          3.57476        5.25805       -4.75460
C          4.84277        5.78131       -4.49163
C          5.97494        5.10563       -4.95253
C          5.83815        3.91702       -5.67358
C          4.56426        3.40292       -5.93741
C          3.42868        4.07217       -5.48120
C         -6.70742        2.73114       -0.27544
C         -7.17364        1.51710       -1.05131
C         -7.54763        1.69097       -2.39579
C         -7.96169        0.62048       -3.18600
C         -8.02397       -0.65721       -2.62637
C         -7.68516       -0.83938       -1.28700
C         -7.25581        0.22635       -0.47863
C         -6.93237       -0.06889        0.96995
H          3.80812        1.01353       -0.68259
H          3.63538        1.51829        1.01708
H          3.36924        2.68208       -0.29653
H          1.78201        0.68638       -2.11450
H         -0.62477        0.13815       -2.20900
H         -1.02448        1.22263        1.95054
H          1.38488        1.75331        2.03669
H         -2.83941       -0.12072        0.71801
H         -2.69485       -0.32255       -1.03446
H         -4.69963        1.30453        1.00337
H         -4.98401        3.86477        0.35261
H         -4.52950        4.25309       -1.99617
H         -5.10858        2.63358       -2.44612
H         -2.74930        2.13017       -2.46999
H         -1.17749        3.17000       -0.67846
H         -2.49520        4.28104       -0.29106
H         -2.46682        4.96546       -2.81782
H         -1.03867        3.92438       -2.97484
H          0.07271        5.29903       -1.10110
H         -1.28489        6.46262       -1.25158
H          1.54905        6.28447       -6.83311
H          1.18944        8.43820       -8.03787
H          1.61653       10.59988       -6.87571
H          2.40625       10.60694       -4.51300
H          2.76481        8.44942       -3.31447
H          4.94015        6.71063       -3.93024
H          6.96572        5.51183       -4.74708
H          6.72306        3.39285       -6.03543
H          4.45472        2.47896       -6.50624
H          2.43075        3.67949       -5.67620
H         -7.18324        3.63359       -0.68693
H         -7.02775        2.68424        0.77609
H         -7.53318        2.69626       -2.82298
H         -8.24898        0.78548       -4.22450
H         -8.35793       -1.50589       -3.22386
H         -7.76892       -1.83401       -0.84396
H         -7.57498       -0.87249        1.35143
H         -7.07550        0.79487        1.63302
H         -5.89757       -0.43414        1.09757
