73

C          9.56837       -0.12766        5.65498
C          9.66732       -0.23127        4.13603
S          8.32105       -1.34400        3.55374
C          8.66546       -1.36306        1.86946
N          9.63077       -0.80431        1.17455
N          9.41555       -1.15400       -0.15872
C          8.35398       -1.88130       -0.15747
O          7.78928       -2.08857        1.05837
N          7.72119       -2.52346       -1.28950
C          8.26776       -1.96674       -2.61192
C          7.47820       -2.45087       -3.82836
C          5.97821       -2.14015       -3.71849
C          8.09808       -1.79084       -5.07146
C          7.75751       -4.06755       -1.16295
C          9.15806       -4.64940       -1.20935
C          9.10902       -6.17006       -0.98438
C         10.49183       -6.82491       -1.07418
C         10.44425       -8.34744       -0.90929
C         11.81457       -9.01821       -1.05184
C         11.75021      -10.54769       -0.99153
C         13.11060      -11.22724       -1.17919
C         13.02749      -12.75677       -1.20436
C         14.38158      -13.44287       -1.41431
C         14.27915      -14.96898       -1.48106
C         15.64036      -15.64715       -1.69027
N         15.55294      -17.09775       -1.76689
C         15.36660      -17.82745       -2.92166
C         15.21363      -19.15765       -2.57324
C         15.30208      -19.23567       -1.15528
C         15.50618      -17.95075       -0.68522
H         10.35292        0.55146        6.01269
H          9.71915       -1.09991        6.14252
H          8.60118        0.28014        5.97752
H         10.62104       -0.66257        3.80850
H          9.52715        0.73850        3.64292
H          6.71885       -2.27020       -1.27386
H          9.32632       -2.24385       -2.65146
H          8.21055       -0.87504       -2.50561
H          7.61293       -3.54089       -3.93234
H          5.79945       -1.06162       -3.59090
H          5.47462       -2.67335       -2.89376
H          5.45639       -2.45185       -4.63216
H          7.97837       -0.69796       -5.04449
H          7.60377       -2.15867       -5.97916
H          9.16984       -2.01437       -5.16035
H          7.12239       -4.44004       -1.97620
H          7.25726       -4.28160       -0.20899
H          9.79292       -4.17947       -0.44121
H          9.62856       -4.44459       -2.18340
H          8.44016       -6.62953       -1.73237
H          8.66034       -6.38208        0.00079
H         11.15603       -6.38758       -0.30916
H         10.94670       -6.57939       -2.04950
H          9.75560       -8.77007       -1.66195
H         10.00949       -8.59924        0.07350
H         12.49212       -8.64390       -0.26482
H         12.26837       -8.71365       -2.01137
H         11.05525      -10.90945       -1.76982
H         11.31215      -10.86100       -0.02780
H         13.79579      -10.90773       -0.37459
H         13.56567      -10.87342       -2.12118
H         12.33515      -13.06872       -2.00579
H         12.57837      -13.11630       -0.26216
H         15.06834      -13.15302       -0.59953
H         14.84042      -13.06379       -2.34473
H         13.60618      -15.26715       -2.30139
H         13.82727      -15.35815       -0.55422
H         16.32656      -15.38734       -0.86915
H         16.10714      -15.28762       -2.61993
H         15.37046      -17.33977       -3.89134
H         15.07128      -19.98250       -3.26403
H         15.23947      -20.13144       -0.54567
H         15.63024      -17.57224        0.32459
