53

C          1.14323       -0.36482       -0.74106
C          2.31224        0.01283       -1.26871
C          3.27416        0.95179       -0.58532
N          4.67230        0.46124       -0.52557
C          5.00411       -0.56061        0.30512
N          4.04933       -1.28266        0.91290
C          4.32320       -2.36704        1.87055
C          5.74775       -2.27501        2.41468
C          6.73106       -2.05918        1.26277
N          6.29347       -0.85653        0.53168
C          8.19556       -1.89704        1.67786
C          9.14539       -1.64418        0.49513
C         10.62692       -1.76682        0.86691
C         11.54969       -1.42879       -0.31719
N         12.94698       -1.71644       -0.05640
C         13.83483       -0.88320        0.59467
C         15.02887       -1.56259        0.74756
C         14.85887       -2.85545        0.17740
C         13.56635       -2.92517       -0.30575
C          5.73395        1.20967       -1.21795
C          6.39152        0.44175       -2.37938
C          5.47912        0.05733       -3.52899
Br         4.42725        1.53798       -4.26525
Br         7.91715        1.53503       -2.97275
H          0.45055       -1.00026       -1.29220
H          0.81749       -0.02286        0.24532
H          2.59246       -0.31546       -2.27324
H          2.92757        1.19184        0.43322
H          3.31344        1.89518       -1.14668
H          3.10528       -1.20279        0.53518
H          4.16240       -3.33446        1.36909
H          3.58983       -2.28802        2.68433
H          5.98517       -3.20328        2.94995
H          5.83695       -1.44446        3.13128
H          6.66516       -2.91807        0.56826
H          7.00795       -0.21522        0.20859
H          8.49129       -2.82548        2.18986
H          8.28483       -1.08865        2.42299
H          8.97897       -0.63579        0.06824
H          8.91672       -2.35818       -0.31601
H         10.84087       -2.79429        1.20034
H         10.86646       -1.10590        1.71482
H         11.45480       -0.36433       -0.58391
H         11.24807       -2.00640       -1.20511
H         13.54584        0.12345        0.88021
H         15.93009       -1.16648        1.20400
H         15.60408       -3.64138        0.11061
H         13.03890       -3.72220       -0.82071
H          6.50580        1.54219       -0.50565
H          5.27936        2.12363       -1.61787
H          6.86118       -0.48829       -2.02831
H          4.74891       -0.68956       -3.19158
H          6.05138       -0.35412       -4.36534
