73

C          2.13242        0.09006       -2.78356
C          3.34934        0.05366       -1.85553
C          3.90359        1.44465       -1.52490
C          5.10724        1.40982       -0.57706
C          5.66667        2.79646       -0.23844
C          6.81756        2.74038        0.77262
C          7.39732        4.12200        1.11253
C          8.49589        3.97404        2.16396
S          9.39913        5.55162        2.44842
C          8.82165        6.32536        4.10291
C          9.35232        5.59586        5.37837
C          8.88643        6.31597        6.66428
C          8.99968        4.10524        5.50176
C          9.43676        7.74290        4.02165
O          9.08596        8.34350        2.78426
C          7.29486        6.39105        3.97959
C         11.15549        4.93384        2.74014
O         11.48985        4.18330        1.62709
C         12.66987        4.50594        0.91994
C         13.81638        4.86625        1.62992
C         15.02014        5.12566        0.96320
C         16.26970        5.47774        1.72706
C         15.02775        4.99784       -0.43253
C         13.87745        4.61638       -1.11932
C         12.65694        4.35640       -0.47521
C         11.44107        3.96852       -1.30619
C         10.84310        2.59716       -0.94049
C         10.38279        5.08677       -1.33411
H          1.76111       -0.92120       -2.99768
H          2.37596        0.56447       -3.74568
H          1.30458        0.65867       -2.33445
H          4.14667       -0.55395       -2.31612
H          3.08192       -0.46125       -0.91714
H          3.10299        2.05768       -1.07413
H          4.18613        1.95748       -2.46111
H          5.90716        0.79368       -1.02412
H          4.81762        0.89707        0.35721
H          4.85797        3.43072        0.16382
H          6.01196        3.29162       -1.16215
H          7.62460        2.09923        0.37828
H          6.46339        2.25208        1.69716
H          6.59857        4.78474        1.47869
H          7.80814        4.58865        0.20511
H          9.28942        3.30099        1.80859
H          8.11689        3.59564        3.11786
H         10.45239        5.68288        5.35460
H          7.79906        6.24237        6.80114
H          9.16779        7.37473        6.70003
H          9.35579        5.82926        7.52869
H          7.91423        3.93285        5.48069
H          9.36009        3.73290        6.46918
H          9.46324        3.47479        4.73312
H         10.53461        7.68569        4.15275
H          9.03294        8.31743        4.87100
H          9.32023        9.28400        2.80860
H          6.82180        5.40410        4.04335
H          6.99261        6.87659        3.04406
H          6.90072        7.00162        4.80298
H         11.15439        4.33023        3.65725
H         11.75849        5.84620        2.85990
H         13.79425        4.90849        2.72103
H         16.04414        5.80635        2.74943
H         16.82974        6.27831        1.22591
H         16.94198        4.60926        1.79758
H         15.94750        5.18851       -0.98769
H         13.91337        4.51807       -2.20621
H         11.82002        3.87374       -2.33674
H         10.39165        2.59331        0.05971
H         11.61233        1.81388       -0.95843
H         10.06319        2.32043       -1.66370
H          9.97052        5.28793       -0.33567
H          9.54738        4.81184       -1.99399
H         10.81297        6.02611       -1.70579
