57

O          4.72260       -2.53327       -4.00119
C          4.03233       -1.58239       -3.19201
C          4.19925       -1.96955       -1.72669
O          5.56254       -2.09602       -1.31591
C          6.26102       -0.88507       -1.08423
C          7.69299       -1.04374       -1.63404
C          7.66498       -1.22912       -3.12035
N          7.84063       -2.47581       -3.56863
N          7.74447       -2.67927       -4.88089
C          7.89053       -4.10424       -5.28877
C          6.53686       -4.77706       -5.56920
P          5.84896       -4.29949       -7.20484
O          6.89330       -3.79314       -8.12613
O          5.07625       -5.55296       -7.80237
C          3.95071       -6.21064       -7.12873
C          4.23964       -7.69234       -7.00930
O          4.72779       -3.19866       -6.79378
C          4.13672       -2.38851       -7.87524
C          3.27484       -1.31959       -7.24068
C          7.47399       -1.73195       -5.78758
C          7.27638       -0.41708       -5.35416
C          7.39060       -0.15929       -3.99892
C          6.89757        0.60814       -6.39204
O          6.60959        0.29345       -7.52978
O          6.89646        1.83947       -5.86956
C          6.54346        2.94609       -6.77746
C          7.77632        3.48485       -7.47515
H          4.39920       -2.49865       -4.91846
H          2.95048       -1.56538       -3.41254
H          4.41784       -0.55979       -3.37885
H          3.76564       -2.96590       -1.56437
H          3.65433       -1.24866       -1.09039
H          6.31539       -0.67411       -0.00178
H          5.75991       -0.02485       -1.56432
H          8.16380       -1.91846       -1.16842
H          8.27966       -0.14952       -1.37488
H          8.39769       -4.58516       -4.44677
H          8.52775       -4.12744       -6.18218
H          5.82734       -4.59667       -4.75010
H          6.72615       -5.85917       -5.62289
H          3.06897       -6.01696       -7.75476
H          3.77798       -5.74556       -6.14621
H          4.43202       -8.13219       -7.99589
H          3.37371       -8.20373       -6.56692
H          5.11103       -7.88314       -6.36873
H          3.54722       -3.05775       -8.51930
H          4.95659       -1.95708       -8.46530
H          2.46862       -1.75565       -6.63473
H          2.81135       -0.70960       -8.02755
H          3.87658       -0.64725       -6.61304
H          7.41193       -2.04383       -6.83570
H          7.25845        0.85228       -3.61505
H          6.08766        3.68577       -6.10914
H          5.79457        2.57419       -7.48800
H          8.53297        3.81159       -6.75082
H          7.49003        4.35444       -8.08255
H          8.21652        2.73717       -8.14642
