41

O          1.37815        0.64936        1.00221
C          2.77057        0.23856        0.86033
C          2.97423       -0.61800       -0.39046
C          2.61106        0.03206       -1.75107
O          3.21191        1.33441       -1.93329
C          2.30050        2.37628       -1.62699
N          0.95990        1.65730       -1.42916
C          1.13598        0.31285       -2.09928
C          0.03125       -0.68252       -1.71543
C          0.01499       -1.86582       -2.64547
C         -0.59905       -1.93296       -3.83113
Br        -1.58059       -0.48319       -4.55597
Br         0.97670       -3.41555       -2.07916
C          2.25168        3.41778       -2.72866
C          3.60083        4.17391       -2.80000
C          3.58597        5.26726       -3.86553
O          2.65094        6.25597       -3.41205
O          3.91618        4.72610       -1.52329
C          4.44816       -1.05891       -0.43137
H          1.23528        0.96478        1.90855
H          3.04914       -0.36104        1.73839
H          3.42092        1.12900        0.83344
H          2.34929       -1.52100       -0.29536
H          3.03371       -0.60915       -2.53760
H          2.55086        2.85113       -0.66468
H          0.17331        2.19362       -1.80981
H          0.84428        1.47554       -0.39402
H          1.08351        0.50663       -3.17976
H         -0.94328       -0.17728       -1.81384
H          0.13165       -1.00546       -0.67191
H         -0.59129       -2.80825       -4.47570
H          1.45625        4.14965       -2.51072
H          2.03409        2.93420       -3.69450
H          4.39898        3.45573       -3.04306
H          3.29116        4.85306       -4.84595
H          4.59997        5.68993       -3.95064
H          2.80134        7.08324       -3.89289
H          3.50321        5.61027       -1.50445
H          5.11750       -0.20052       -0.58104
H          4.61425       -1.76804       -1.25259
H          4.73798       -1.55927        0.50162
