142

C         -0.26727       -2.46425        0.61405
C          1.16887       -1.94047        0.69605
C          2.17137       -2.79191       -0.09096
C          3.61736       -2.29308        0.00155
C          4.61287       -3.16449       -0.77114
C          6.07306       -2.71795       -0.63585
C          7.04873       -3.60682       -1.41386
C          8.52792       -3.26987       -1.19209
C          9.46782       -4.18822       -1.98035
C         10.95675       -4.01676       -1.65624
C         11.83173       -5.02194       -2.41420
C         13.29875       -5.07733       -1.97061
C         14.03238       -6.27537       -2.58886
C         15.45480       -6.51318       -2.05164
C         15.92663       -7.99027       -2.02732
C         17.39635       -8.05484       -1.54132
C         18.02026       -9.43805       -1.29419
C         19.48607       -9.31965       -0.83874
S         20.48733      -10.76963       -1.25867
C         20.87527      -10.43629       -2.98209
S         20.44310       -9.00248       -3.74034
N         21.54683      -11.42928       -3.59813
C         21.90009      -12.69802       -2.94251
C         20.83867      -13.78751       -3.14754
C         21.23368      -15.13000       -2.52634
C         20.16720      -16.21197       -2.72929
C         20.55861      -17.58166       -2.16606
C         19.49286      -18.65894       -2.39179
C         19.88349      -20.03806       -1.84897
C         18.81932      -21.10974       -2.09834
C         21.89946      -11.31046       -5.02407
C         23.21355      -10.56214       -5.28100
C         23.34837      -10.18514       -6.75907
C         24.57512       -9.32330       -7.07138
C         24.50828       -8.68230       -8.46080
C         25.65412       -7.70872       -8.74707
C         25.49460       -6.95936      -10.07366
C         26.59508       -5.92478      -10.32098
C         15.03747       -8.83130       -1.04958
C         14.85539      -10.12128       -1.73620
N         15.17838      -10.03888       -2.98249
C         15.67189       -8.69920       -3.41483
C         16.76751       -8.85700       -4.47349
C         17.26829       -7.55188       -5.10745
C         18.20617       -7.87440       -6.28274
N         19.21449       -6.84095       -6.47642
C         20.28112       -7.27309       -7.39836
C         21.52323       -6.42786       -7.25168
C         22.34186       -6.56450       -6.12128
C         23.49762       -5.80074       -5.95118
C         23.86285       -4.88347       -6.94024
C         23.07336       -4.73452       -8.07926
C         21.90689       -5.49636       -8.23459
O         21.11361       -5.37767       -9.34703
H         -0.96091       -1.83316        1.18656
H         -0.34288       -3.48700        1.01319
H         -0.62480       -2.49052       -0.42628
H          1.48411       -1.89458        1.75236
H          1.20495       -0.90206        0.32580
H          1.86386       -2.82884       -1.15119
H          2.12406       -3.83466        0.27058
H          3.91878       -2.24962        1.06316
H          3.67247       -1.25476       -0.37019
H          4.33232       -3.17967       -1.83919
H          4.52388       -4.20923       -0.42342
H          6.35332       -2.71658        0.43246
H          6.17400       -1.67237       -0.97519
H          6.81623       -3.54837       -2.49179
H          6.87885       -4.66054       -1.12793
H          8.75854       -3.34960       -0.11502
H          8.71830       -2.21775       -1.46545
H          9.30600       -4.03726       -3.06190
H          9.18569       -5.23782       -1.78032
H         11.10632       -4.15343       -0.57062
H         11.28007       -2.98635       -1.88051
H         11.77862       -4.81775       -3.49736
H         11.39245       -6.02802       -2.27972
H         13.34206       -5.16460       -0.87064
H         13.81801       -4.13819       -2.22206
H         14.05494       -6.16263       -3.68587
H         13.39845       -7.16250       -2.40393
H         15.52101       -6.14141       -1.01596
H         16.18097       -5.91792       -2.62418
H         17.44346       -7.46446       -0.61005
H         18.03504       -7.52225       -2.26172
H         18.00408      -10.03310       -2.21631
H         17.46009      -10.01389       -0.53832
H         19.57521       -9.22401        0.25264
H         19.97357       -8.45588       -1.31436
H         22.07215      -12.51412       -1.87195
H         22.86723      -13.01655       -3.35933
H         20.66187      -13.91953       -4.22799
H         19.88678      -13.43937       -2.71464
H         21.42445      -14.99777       -1.44716
H         22.18801      -15.47107       -2.96387
H         19.95334      -16.31147       -3.80823
H         19.22158      -15.88159       -2.26329
H         20.76537      -17.48958       -1.08532
H         21.50748      -17.90602       -2.62770
H         19.28093      -18.74054       -3.47289
H         18.54446      -18.33975       -1.92316
H         20.08253      -19.95885       -0.76688
H         20.83632      -20.35101       -2.30806
H         17.86167      -20.84123       -1.62771
H         19.12561      -22.08365       -1.69297
H         18.63182      -21.24358       -3.17425
H         21.07504      -10.78105       -5.52215
H         21.94490      -12.33186       -5.42962
H         24.07064      -11.16991       -4.94846
H         23.21873       -9.64430       -4.67352
H         22.44324       -9.62617       -7.05308
H         23.35910      -11.09488       -7.38427
H         25.49524       -9.92382       -6.97087
H         24.64896       -8.52107       -6.31858
H         23.55301       -8.13733       -8.54642
H         24.48335       -9.46806       -9.23637
H         26.61735       -8.24861       -8.74189
H         25.71129       -6.97540       -7.92450
H         24.51002       -6.46118      -10.08278
H         25.47389       -7.68520      -10.90423
H         26.60543       -5.15876       -9.53041
H         26.45808       -5.40955      -11.28194
H         27.58953       -6.39502      -10.33677
H         14.03311       -8.38532       -0.91399
H         15.45311       -8.94545       -0.03895
H         14.47756      -11.05469       -1.31305
H         15.09867      -10.81954       -3.63785
H         14.80409       -8.21743       -3.89678
H         16.34719       -9.49068       -5.27598
H         17.63793       -9.39439       -4.06962
H         17.83019       -6.97180       -4.35962
H         16.43148       -6.91621       -5.43537
H         17.62159       -7.98231       -7.21241
H         18.68028       -8.86568       -6.09553
H         19.64412       -6.61801       -5.57542
H         19.90142       -7.21988       -8.42803
H         20.55398       -8.33432       -7.20486
H         22.06880       -7.30580       -5.36524
H         24.11689       -5.93106       -5.06383
H         24.76874       -4.28591       -6.83268
H         23.35995       -4.02445       -8.85956
H         21.50093       -4.71084       -9.93684
