48

C          8.17219        3.11375      -11.92909
O          7.49782        2.56992      -10.79840
C          7.47386        3.46622       -9.69795
C          6.57163        2.91917       -8.61586
O          7.15589        1.76083       -8.00944
C          6.38750        1.31967       -6.89792
C          6.98324        0.04208       -6.32506
O          8.39770        0.08686       -6.08935
C          8.87437        1.15315       -5.28366
C         10.38312        1.20138       -5.49010
N         10.71126        1.51320       -6.88931
C         10.41007        0.79638       -7.97246
N         10.84471        1.50261       -9.03941
C         11.40670        2.67358       -8.53681
N         11.32931        2.67373       -7.22003
C         12.06056        3.77737       -9.30447
O         11.19226        4.22542      -10.32177
C         11.78186        5.25867      -11.11753
N         10.67711        1.16715      -10.39074
C          9.62081        0.17119      -10.58612
C         11.95510        0.81529      -11.02614
H          8.10994        2.36406      -12.72739
H          9.23130        3.32417      -11.70239
H          7.68328        4.04159      -12.27643
H          7.07590        4.45205      -10.00950
H          8.49645        3.63494       -9.30440
H          5.58606        2.66171       -9.04510
H          6.41912        3.70548       -7.85138
H          5.34433        1.09391       -7.19318
H          6.33056        2.12161       -6.13457
H          6.85766       -0.78732       -7.03364
H          6.44245       -0.21400       -5.39575
H          8.66653        0.98295       -4.21123
H          8.43117        2.11921       -5.57715
H         10.83873        0.23361       -5.23937
H         10.85056        1.98795       -4.88776
H          9.86962       -0.13996       -7.97424
H         13.02616        3.42425       -9.72428
H         12.29879        4.56969       -8.57066
H         11.04290        5.51924      -11.88278
H         12.70697        4.90671      -11.60667
H         12.01048        6.15069      -10.51017
H          8.68830        0.53531      -10.13756
H          9.88803       -0.83352      -10.20551
H          9.46242        0.09216      -11.66733
H         12.66665        1.64372      -10.94157
H         11.75204        0.65635      -12.09079
H         12.40343       -0.10143      -10.60180
