60

F          1.38405       -1.13647       -0.52353
C          2.57803       -1.80061       -0.18362
C          3.59963       -1.57583       -1.28723
C          3.98038       -0.09581       -1.44584
C          4.81089        0.21310       -2.69185
N          3.95217        0.07254       -3.94722
C          3.21592        1.40024       -4.16825
C          4.14320        2.43442       -3.47810
C          5.31833        1.66144       -2.81850
C          6.64250        1.72091       -3.61055
C          7.24363        3.11711       -3.73839
O          7.42272        3.65993       -2.44205
C          8.08467        4.93417       -2.45861
C          8.29693        5.36451       -1.01944
O          9.16558        4.48723       -0.31161
C          2.84491        1.57700       -5.66918
C          2.09730        0.33782       -6.25991
C          0.73738       -0.14390       -5.69479
C         -0.01072       -0.90933       -6.79828
C          0.84909       -1.03217       -4.44471
C          1.90186        2.79404       -5.80444
O          2.59104        3.99268       -5.45244
C          4.09844        1.80357       -6.53751
H          2.34205       -2.86750       -0.06370
H          2.91678       -1.39290        0.78161
H          3.17013       -1.99140       -2.21635
H          4.49501       -2.17839       -1.06462
H          4.58240        0.21751       -0.57949
H          3.07450        0.53036       -1.42610
H          5.62855       -0.51814       -2.78726
H          3.28255       -0.70729       -3.88268
H          4.55454       -0.10835       -4.76119
H          2.28552        1.29808       -3.59534
H          3.56550        2.98656       -2.72800
H          4.50553        3.18086       -4.18953
H          5.51589        2.06170       -1.81568
H          6.51513        1.32319       -4.63277
H          7.37696        1.07219       -3.10704
H          6.59201        3.78045       -4.34364
H          8.21171        3.04780       -4.27030
H          7.46695        5.67858       -2.99666
H          9.05740        4.83910       -2.97553
H          7.31708        5.45436       -0.51352
H          8.77375        6.35480       -1.00729
H          8.78303        3.59711       -0.36882
H          2.78820       -0.52643       -6.28984
H          1.94162        0.58678       -7.32126
H          0.12465        0.73431       -5.43205
H          0.56370       -1.78845       -7.12926
H         -0.18641       -0.27418       -7.67700
H         -0.98551       -1.26536       -6.43950
H          1.50288       -1.90145       -4.63819
H         -0.13298       -1.44100       -4.17030
H          1.20286       -0.50011       -3.54805
H          1.01438        2.65386       -5.16154
H          1.55514        2.83128       -6.85300
H          2.00417        4.74591       -5.61948
H          4.78733        0.94174       -6.51739
H          4.65420        2.70118       -6.24596
H          3.80358        1.92768       -7.58787
