61

O          4.10914        1.27047       -2.09127
C          3.19573        0.72855       -1.47009
N          1.89434        0.66487       -1.86185
C          1.27055        1.19132       -3.02475
C         -0.06703        0.82170       -3.23933
C         -0.75401        1.29653       -4.35384
C         -0.11381        2.14486       -5.26205
C          1.21609        2.51059       -5.04225
C          1.92108        2.04201       -3.93105
C          3.48783        0.07449       -0.10013
C          4.89651       -0.56741       -0.15244
C          5.71426       -0.34370        1.06327
N          6.58646        0.67667        1.25995
C          7.15818        0.53128        2.50846
N          6.65759       -0.53952        3.09018
N          5.76549       -1.05729        2.19212
C          5.06898       -2.31310        2.50429
C          5.93849       -3.54972        2.21424
C          5.15867       -4.81015        2.51010
C          4.42415       -5.44321        1.49749
C          3.66823       -6.58359        1.77637
C          3.63598       -7.10045        3.07420
C          4.36655       -6.47757        4.08975
C          5.12357       -5.33854        3.80891
C          8.15145        1.45408        3.11928
C          7.49964        2.68354        3.79367
C          8.54892        3.53097        4.52224
C          7.92495        4.74055        5.22310
S          9.20458        5.68197        6.08189
O          9.67467        4.91943        7.22060
O         10.11025        6.20509        5.09076
O          8.32867        6.93002        6.64201
H          1.26727        0.14831       -1.25160
H         -0.56896        0.15748       -2.53094
H         -1.79141        1.00095       -4.51147
H         -0.64992        2.51835       -6.13427
H          1.72156        3.17291       -5.74571
H          2.95796        2.32303       -3.77033
H          2.72438       -0.65715        0.19822
H          3.46191        0.88711        0.64297
H          5.41817       -0.09645       -1.00304
H          4.83179       -1.64383       -0.35907
H          6.78352        1.40512        0.57646
H          4.14255       -2.33360        1.91662
H          4.79949       -2.25970        3.56601
H          6.84868       -3.49602        2.82901
H          6.25186       -3.53303        1.15876
H          4.45953       -5.05355        0.47675
H          3.11146       -7.07487        0.97780
H          3.05182       -7.99496        3.29127
H          4.35493       -6.88516        5.10098
H          5.70291       -4.86345        4.60411
H          8.87444        1.77643        2.35350
H          8.71089        0.87283        3.86524
H          6.73519        2.33338        4.50492
H          6.97726        3.29270        3.03732
H          9.31307        3.88035        3.81068
H          9.06866        2.90899        5.26804
H          7.18725        4.44991        5.98407
H          7.45807        5.44067        4.51585
H          8.29884        6.84714        7.61475
