96

O          4.87390        1.14442       -3.88062
C          4.01054        0.04799       -3.53551
C          4.03850       -0.19060       -2.03586
N          3.39786        0.88758       -1.28006
C          3.22500        0.61610        0.14231
C          4.48137        0.96896        0.96572
C          4.72042        2.47737        0.95730
C          6.13697        2.99450        1.32682
C          6.22916        4.52328        1.13291
C          5.99300        4.93016       -0.31850
N          6.77559        4.08207       -1.22833
C          7.33441        2.91730       -0.87101
N          8.15589        2.26552       -1.71869
C          8.40105        2.64043       -3.10752
C          9.50442        1.72059       -3.65477
O          9.25976        0.35137       -3.34725
C          8.27730       -0.30476       -4.16855
C          8.80567       -0.64295       -5.56341
O          7.69863       -1.20615       -6.25606
C          7.77762       -1.31481       -7.63133
C          8.93742       -1.08258       -8.37948
C          8.88566       -1.18294       -9.77261
C          7.70924       -1.52159      -10.45965
C          6.56885       -1.77013       -9.67643
C          6.59522       -1.67349       -8.28570
C          7.68895       -1.56076      -11.99576
C          8.74654       -2.54781      -12.59317
C          8.78216       -4.08523      -12.33949
C          7.51109       -4.81839      -12.81009
C          9.96538       -4.61257      -13.18128
C          9.05009       -4.44280      -10.86586
C          6.27666       -1.82652      -12.55070
C          8.09347       -0.15044      -12.50409
N          7.10610        2.41302        0.35103
C          6.67038        2.53945        2.70627
C          6.05916        3.08402        4.04106
N          4.60220        3.06241        4.17924
N          6.69220        2.24872        5.07375
N          6.43593        4.48827        4.20479
O          4.32284        0.52672        2.32390
H          4.77498        1.29645       -4.83343
H          4.33588       -0.87676       -4.04298
H          2.97321        0.25966       -3.85698
H          5.08857       -0.28732       -1.71405
H          3.55789       -1.17514       -1.84899
H          2.49527        1.10414       -1.70227
H          2.97431       -0.45024        0.34351
H          2.38503        1.21708        0.52279
H          5.35003        0.45455        0.50924
H          3.97839        2.94965        1.61634
H          4.49142        2.79649       -0.07105
H          7.22446        4.85473        1.46024
H          5.51047        5.03506        1.78200
H          6.30656        5.97184       -0.47335
H          4.92942        4.85928       -0.59119
H          6.83602        4.34911       -2.20419
H          8.35467        1.28197       -1.53212
H          8.75761        3.68051       -3.16905
H          7.47606        2.54294       -3.70214
H         10.46061        1.96021       -3.16874
H          9.61399        1.89796       -4.73633
H          7.35472        0.29422       -4.25738
H          8.02442       -1.23049       -3.63395
H          9.64868       -1.35312       -5.50080
H          9.15999        0.26554       -6.08240
H          9.88214       -0.83273       -7.89711
H          9.80429       -0.99376      -10.33024
H          5.62764       -2.04243      -10.15263
H          5.69921       -1.86703       -7.69424
H          9.74044       -2.16567      -12.30257
H          8.69348       -2.40836      -13.68730
H          7.22721       -4.52592      -13.83168
H          6.65442       -4.63269      -12.14939
H          7.68708       -5.90437      -12.81170
H          9.80896       -4.42113      -14.25344
H         10.08218       -5.69776      -13.04667
H         10.91084       -4.13248      -12.88749
H          8.22384       -4.14409      -10.20823
H          9.96609       -3.95857      -10.49611
H          9.18336       -5.53061      -10.76437
H          5.83843       -2.76780      -12.20170
H          6.31323       -1.86733      -13.64805
H          5.59153       -1.01168      -12.27413
H          9.11202        0.12026      -12.19449
H          7.40578        0.61265      -12.11238
H          8.05547       -0.11496      -13.60256
H          7.67968        1.63374        0.65759
H          7.74342        2.78626        2.74453
H          6.59377        1.44149        2.74108
H          4.21984        2.15931        3.89535
H          4.16334        3.79088        3.61456
H          6.42472        1.26743        4.95774
H          6.32092        2.53681        5.98289
H          5.95210        4.85122        5.03005
H          7.43700        4.54114        4.40339
H          4.01858       -0.39623        2.31103
