63

C          1.41540       -0.23924        0.40752
C          2.82708        0.06049        0.91830
C          3.50171       -1.15662        1.56206
C          4.91459       -0.84061        2.06589
N          5.58596       -1.99248        2.67462
C          6.36415       -2.84179        1.95375
O          6.61747       -2.70636        0.76090
C          6.99761       -4.00599        2.74695
C          8.37901       -3.63126        3.32207
C          9.16028       -2.61282        2.45960
N         10.48779       -2.28202        2.95740
C         11.29494       -3.47338        3.11577
C         10.63597       -4.54640        3.98966
N          9.26290       -4.89544        3.44374
C          8.63456       -6.04158        4.20625
C          9.29642       -7.36541        3.82227
C          8.54304       -8.65976        4.16271
C          8.59891       -9.11192        5.66419
Br         7.65600       -7.91653        6.90783
F          8.09175      -10.34407        5.78856
F          9.90637       -9.15164        6.03125
Br         6.68675       -8.62447        3.52649
F          9.19367       -9.66197        3.47804
C         10.57598       -1.31977        4.05281
C         10.10908        0.08298        3.65109
O          9.24766        0.32340        2.82777
O         10.76275        0.99830        4.38179
C         10.37899        2.39847        4.17321
C         11.01995        3.22288        5.27387
C         10.69243        4.71200        5.12576
H          0.96268        0.64962       -0.05101
H          0.75347       -0.56522        1.22324
H          1.42568       -1.03526       -0.35101
H          2.78840        0.88672        1.64830
H          3.45240        0.42020        0.08429
H          3.56286       -1.98014        0.83251
H          2.88575       -1.52201        2.40195
H          4.89225       -0.03482        2.81442
H          5.55264       -0.50862        1.23595
H          5.33228       -2.24708        3.62339
H          7.09564       -4.81408        2.00641
H          6.32655       -4.35981        3.54289
H          8.28110       -3.25923        4.35328
H          8.57755       -1.68825        2.38186
H          9.25108       -3.00389        1.43132
H         12.27180       -3.22178        3.55129
H         11.49521       -3.90003        2.11533
H         10.47668       -4.20821        5.02265
H         11.23034       -5.46870        4.00959
H          9.39462       -5.21428        2.46893
H          7.57198       -6.07215        3.94393
H          8.72469       -5.80928        5.27308
H         10.29931       -7.47034        4.26108
H          9.41278       -7.41092        2.72725
H         11.62450       -1.25179        4.36947
H          9.99517       -1.59170        4.96402
H          9.28142        2.46320        4.18377
H         10.72701        2.69597        3.17278
H         12.10969        3.06992        5.25198
H         10.66709        2.85180        6.24871
H         11.07442        5.11680        4.17765
H         11.14694        5.29094        5.93930
H          9.60835        4.89372        5.15415
