46

C          0.28872        1.25925       -6.83178
C          1.78603        1.51199       -7.01999
C          2.52367        1.77758       -5.70355
C          4.02281        2.03544       -5.88372
C          4.76502        2.28394       -4.56678
C          6.26278        2.55157       -4.75145
C          7.00138        2.78222       -3.42743
C          8.51919        2.98027       -3.56573
C          8.94219        4.23609       -4.31904
O          8.45255        5.47259       -3.71168
C          9.09090        5.84184       -2.54721
N          8.53899        7.23177       -2.23077
C          9.00119        8.23911       -3.20405
C          8.18087        8.79666       -4.08275
C          8.80918        7.64635       -0.78732
C          7.99376        8.86203       -0.38655
H         -0.20961        1.06327       -7.79085
H         -0.20721        2.12613       -6.36999
H          0.11021        0.39062       -6.18070
H          1.93422        2.36927       -7.69834
H          2.24634        0.64483       -7.52267
H          2.37946        0.91746       -5.02639
H          2.06174        2.64309       -5.19581
H          4.16561        2.90165       -6.55388
H          4.48046        1.17415       -6.40086
H          4.63075        1.41343       -3.90187
H          4.30270        3.13949       -4.04289
H          6.38704        3.42224       -5.41819
H          6.72303        1.69682       -5.27690
H          6.82965        1.91811       -2.76668
H          6.55802        3.64953       -2.90774
H          8.95693        2.12958       -4.11447
H          8.99753        2.95951       -2.57191
H          8.51640        4.26529       -5.32896
H         10.04024        4.30263       -4.40554
H         10.18922        5.93758       -2.64555
H          8.84611        5.20949       -1.67454
H          7.51766        7.13658       -2.35028
H         10.06703        8.44935       -3.11488
H          7.12068        8.54481       -4.14202
H          8.55920        9.53433       -4.78882
H          9.89044        7.82527       -0.71699
H          8.56117        6.77219       -0.17098
H          8.24550        9.74769       -0.98201
H          8.20465        9.09215        0.66540
H          6.91412        8.67129       -0.47004
