36

O          4.82082        4.30922        0.42419
C          4.44790        5.35637       -0.49103
C          3.88136        4.72631       -1.74274
O          4.92342        3.98715       -2.39835
C          4.45793        3.09503       -3.38524
O          5.45518        2.11586       -3.63095
C          5.79032        1.32363       -2.53145
N          7.06067        1.80038       -1.89372
C          7.14618        2.62246       -0.80155
N          8.39845        2.91132       -0.52510
N          9.12228        2.28443       -1.49622
C          8.33113        1.59749       -2.33894
C          8.69681        0.71955       -3.52971
O          8.01040       -0.26672       -3.70766
C          9.82595        1.13436       -4.42643
C         10.58885        2.31395       -1.38498
C         11.12982        1.06758       -0.69081
O         10.83520       -0.04462       -1.53004
H          4.92797        4.69622        1.30659
H          5.32282        5.97943       -0.74562
H          3.67419        6.00544       -0.05041
H          3.49255        5.51851       -2.40679
H          3.04885        4.04827       -1.48057
H          4.30364        3.58838       -4.35854
H          3.51797        2.61222       -3.04771
H          5.97969        0.30235       -2.87539
H          5.03325        1.34298       -1.73480
H          6.28231        3.03201       -0.26875
H          9.91332        2.22574       -4.51326
H          9.66120        0.68855       -5.41376
H         10.76911        0.73286       -4.02556
H         10.82163        3.21251       -0.80355
H         11.01596        2.41659       -2.38891
H         10.66962        0.96266        0.30631
H         12.21705        1.20790       -0.55973
H         11.02894       -0.86965       -1.05838
