72

C          2.92572       -3.06648       -7.95745
C          4.44929       -3.15379       -7.83455
C          4.92896       -3.35956       -6.39333
C          6.45257       -3.43878       -6.25388
C          6.92351       -3.65772       -4.81249
C          8.44641       -3.73409       -4.66979
C          8.91807       -3.99639       -3.23562
C         10.44477       -4.04556       -3.10930
C         10.97518       -4.32958       -1.69573
C         10.56813       -5.68155       -1.08980
C         11.05996       -6.93746       -1.86527
C         12.55777       -7.03354       -1.94596
C         13.32355       -7.39841       -0.80740
N         14.66272       -7.39428       -0.88435
N         15.40252       -7.08077       -1.93385
C         14.71921       -6.75287       -3.02313
C         13.31047       -6.73573       -3.09479
C         12.69037       -6.50158       -4.45646
O         11.72449       -7.12116       -4.85465
O         13.40531       -5.60109       -5.14083
C         13.00781       -5.34002       -6.53862
C         12.11754       -4.11732       -6.63023
C         12.74127       -7.80155        0.52712
C         13.68374       -8.59197        1.45332
O         14.92542       -8.48817        1.37489
N         13.08779       -9.35520        2.37769
C         13.82780      -10.10858        3.40424
C         12.85887      -10.87089        4.30407
C         13.57316      -11.66269        5.40597
C         12.60079      -12.43489        6.30074
H          2.61280       -2.92069       -9.00023
H          2.52539       -2.22668       -7.37020
H          2.44217       -3.98442       -7.59113
H          4.90538       -2.23509       -8.24093
H          4.82391       -3.97968       -8.46304
H          4.47739       -4.28287       -5.98880
H          4.54761       -2.53746       -5.76223
H          6.90417       -2.51156       -6.64875
H          6.83597       -4.25609       -6.89041
H          6.47451       -4.58758       -4.42072
H          6.53815       -2.84427       -4.17344
H          8.89675       -2.79528       -5.03780
H          8.83061       -4.53468       -5.32744
H          8.47541       -4.94695       -2.89111
H          8.51975       -3.21622       -2.56414
H         10.86685       -3.08543       -3.44692
H         10.82831       -4.79706       -3.81666
H         10.61748       -3.54149       -1.01378
H         12.07512       -4.23773       -1.69581
H          9.47237       -5.75904       -1.03886
H         10.91448       -5.71995       -0.04560
H         10.64462       -6.94728       -2.87754
H         10.66704       -7.83607       -1.36446
H         15.14181       -7.75246        0.01113
H         15.32579       -6.49740       -3.89138
H         12.51829       -6.24263       -6.92391
H         13.96697       -5.18957       -7.04823
H         11.14548       -4.28654       -6.15259
H         11.93682       -3.89070       -7.68997
H         12.59477       -3.24129       -6.17249
H         11.80355       -8.34885        0.36103
H         12.46028       -6.88260        1.07054
H         12.07362       -9.40896        2.39843
H         14.43848       -9.40038        3.98533
H         14.52509      -10.79385        2.89882
H         12.25675      -11.56292        3.68976
H         12.15334      -10.15923        4.76781
H         14.17342      -10.97104        6.01948
H         14.28918      -12.36271        4.94508
H         11.89253      -11.75899        6.80165
H         13.13819      -12.98820        7.08148
H         12.01491      -13.16362        5.72192
