101

C          1.44152       -0.91828        1.78952
C          2.51226       -0.38453        0.86128
O          3.27219       -1.50144        0.35819
C          4.31498       -1.13556       -0.52521
C          4.88773       -2.42602       -1.13057
C          4.11357       -2.93787       -2.38838
N          4.62248       -4.21983       -2.87877
C          4.66235       -5.25385       -1.85535
C          5.42692       -4.83185       -0.60519
N          4.91221       -3.51395       -0.05721
C          5.67343       -3.15805        1.21179
C          5.06800       -3.87712        2.41520
C          6.05581       -3.90321        3.59166
S          5.71697       -5.21433        4.79288
C          6.43377       -6.64745        3.97235
S          7.10312       -6.57330        2.43309
N          6.38268       -7.76894        4.71837
C          5.82998       -7.81456        6.08417
C          4.35136       -8.20753        6.12799
C          6.91394       -9.04630        4.20377
C          8.38720       -9.25516        4.55630
C          2.58245       -2.98788       -2.21149
C          1.86936       -3.47379       -3.46977
O          0.47775       -3.32070       -3.24886
C         -0.30240       -3.82522       -4.33049
C         -1.77004       -3.60732       -3.99026
O         -2.50241       -4.17528       -5.06790
C         -3.87549       -4.08357       -5.04286
C         -4.54048       -4.64229       -6.14391
C         -5.92552       -4.59384       -6.21540
C         -6.70478       -3.98640       -5.21030
C         -6.01675       -3.45460       -4.11539
C         -4.61883       -3.49266       -4.01904
C         -8.23175       -3.92063       -5.35082
C         -8.66269       -3.13183       -6.63283
C         -8.28994       -1.64823       -6.93436
C         -8.81730       -0.65744       -5.87770
C         -6.77444       -1.42738       -7.11210
C         -8.97933       -1.32007       -8.27770
C         -8.76882       -5.36407       -5.53774
C         -8.91215       -3.37068       -4.08207
H          0.84148       -0.08763        2.18372
H          1.88520       -1.44938        2.64267
H          0.76729       -1.60326        1.25889
H          3.19392        0.30955        1.38645
H          2.06834        0.15885        0.00765
H          5.09511       -0.55235        0.00053
H          3.94672       -0.49764       -1.35107
H          5.93926       -2.26548       -1.41365
H          4.33027       -2.19381       -3.17202
H          5.52628       -4.11515       -3.33919
H          5.13954       -6.15442       -2.26431
H          3.63242       -5.54612       -1.59161
H          6.48894       -4.66051       -0.83167
H          5.37212       -5.57048        0.20663
H          3.92438       -3.61680        0.22718
H          5.64439       -2.07137        1.33410
H          6.71262       -3.47193        1.04679
H          4.85393       -4.92033        2.14299
H          4.12206       -3.39693        2.70718
H          6.02441       -2.97561        4.18071
H          7.08193       -4.06651        3.23202
H          5.99241       -6.83801        6.56275
H          6.43761       -8.53712        6.64744
H          3.72854       -7.47772        5.59531
H          4.01098       -8.25126        7.17133
H          4.18534       -9.19669        5.68028
H          6.77255       -9.04924        3.11618
H          6.29075       -9.84402        4.63348
H          9.01063       -8.47751        4.09802
H          8.72122      -10.23089        4.17915
H          8.55238       -9.24208        5.64239
H          2.20479       -1.98642       -1.96595
H          2.27956       -3.63084       -1.36897
H          2.11870       -4.52881       -3.68473
H          2.19408       -2.88102       -4.35017
H         -0.10913       -4.90400       -4.48099
H         -0.05189       -3.30139       -5.27186
H         -1.98384       -2.52862       -3.88752
H         -2.01609       -4.10353       -3.03420
H         -3.95113       -5.10715       -6.93481
H         -6.40911       -5.02729       -7.09187
H         -6.56697       -2.97986       -3.30399
H         -4.13464       -3.05888       -3.14491
H         -9.76445       -3.19683       -6.66805
H         -8.31315       -3.71807       -7.49967
H         -8.24987       -0.71320       -4.93966
H         -9.87841       -0.83257       -5.64695
H         -8.72432        0.37351       -6.25053
H         -6.21911       -1.57033       -6.17708
H         -6.58652       -0.40049       -7.46073
H         -6.35156       -2.11561       -7.85817
H        -10.07214       -1.42463       -8.20384
H         -8.63201       -1.98976       -9.07863
H         -8.76056       -0.28712       -8.58554
H         -8.38678       -5.83261       -6.45453
H         -9.86684       -5.35882       -5.60041
H         -8.47673       -5.99712       -4.68805
H         -8.56466       -2.37281       -3.79382
H         -8.74749       -4.04497       -3.22897
H         -9.99681       -3.30271       -4.24463
