39

N          0.86340        0.42660        0.60697
C          2.31966        0.42682        0.49471
C          2.90900       -0.69056        1.36473
C          4.43470       -0.78939        1.22777
C          4.98064       -1.90973        2.11192
S          6.76249       -2.20759        1.82835
C          7.53712       -0.77273        2.65028
C          9.04527       -0.76691        2.38712
C          9.78591        0.39799        2.97093
C          9.33790        1.46274        3.64675
F          8.04902        1.67379        3.93546
F         10.10758        2.42659        4.10700
F         11.11917        0.31690        2.75040
C          7.15423       -3.58473        2.94537
C          6.66650       -4.93127        2.40777
C          7.40963       -6.06636        3.14269
N          8.85460       -5.92665        2.94962
H          0.43942        0.98966       -0.12910
H          0.56043        0.82706        1.49548
H          2.80236        1.38910        0.76508
H          2.57618        0.23234       -0.55863
H          2.43674       -1.64236        1.07586
H          2.64048       -0.51099        2.41967
H          4.89107        0.17461        1.50248
H          4.69917       -0.98475        0.17616
H          4.51460       -2.87424        1.86095
H          4.84098       -1.71948        3.18633
H          7.28180       -0.81859        3.71730
H          7.04360        0.10012        2.20401
H          9.23392       -0.77927        1.29962
H          9.51164       -1.68062        2.79333
H          6.75358       -3.34131        3.94023
H          8.25649       -3.61954        2.98896
H          6.88315       -5.00506        1.32960
H          5.58182       -5.05285        2.53605
H          6.99336       -7.02734        2.79424
H          7.19713       -6.00294        4.22059
H          9.14836       -6.33298        2.06056
H          9.37314       -6.41503        3.67823
