50

C          6.69996        3.26212        3.22995
C          6.36136        2.14506        2.24022
C          6.94991        2.37429        0.84337
C          6.63079        1.25151       -0.14846
C          7.21379        1.48335       -1.54736
C          6.92577        0.33355       -2.52178
C          7.38669        0.58152       -3.96598
C          8.92522        0.69281       -4.11610
C          9.44751        0.88989       -5.52277
C          9.78354        2.19662       -5.90731
N         10.40890        2.41722       -7.10570
C         10.71654        1.45996       -7.97316
C         10.38538        0.13066       -7.70463
C          9.72789       -0.18265       -6.44243
C          9.47513       -1.59056       -6.20488
N          8.90535       -2.08636       -5.04663
C          9.88872       -2.52426       -7.16308
C         10.52483       -2.17890       -8.36273
C         10.76781       -0.85538       -8.64791
N          9.64745        3.35787       -5.10904
N          8.35166        3.72138       -4.67099
N         10.34411        4.48187       -5.67117
H          6.27034        3.06344        4.22090
H          6.30979        4.23259        2.88856
H          7.78780        3.36886        3.35641
H          5.26617        2.04135        2.15970
H          6.72707        1.18107        2.63271
H          8.04561        2.48871        0.92581
H          6.57503        3.33408        0.44475
H          5.53682        1.12942       -0.22795
H          7.01336        0.29499        0.24819
H          8.30207        1.64383       -1.45358
H          6.79350        2.42127       -1.95759
H          5.84092        0.14280       -2.53804
H          7.38896       -0.59249       -2.13826
H          6.90834        1.49763       -4.34703
H          6.98909       -0.21064       -4.62358
H          9.40242       -0.19882       -3.68686
H          9.28952        1.53158       -3.50846
H         10.69787        3.40917       -7.20289
H         11.24900        1.76102       -8.87449
H          8.19230       -1.54369       -4.57731
H          8.69127       -3.07788       -5.06751
H          9.68970       -3.57862       -6.95975
H         10.81014       -2.96317       -9.06317
H         11.25314       -0.54861       -9.57388
H          8.22624        3.48233       -3.68701
H          7.62531        3.27222       -5.23239
H         10.99091        4.82866       -4.95899
H          9.64350        5.21318       -5.82770
