50

C          0.30797        0.71191        2.41446
C          1.80011        0.96571        2.18980
C          2.68146       -0.22160        2.59166
C          4.17222        0.00372        2.31321
C          5.01318       -1.20740        2.74533
C          6.56821       -1.16072        2.57730
C          7.08406       -2.62139        2.52176
N          6.81403       -3.33778        3.77371
C          6.82745       -2.70134        4.95504
N          6.51321       -3.38855        6.08587
N          7.09886       -1.41026        5.00669
C          7.26800       -0.53221        3.82300
C          6.84091        0.88296        4.24514
C          7.64468        1.43211        5.43280
N          7.30668        0.71438        6.69316
C          6.97805       -0.42689        1.25086
C          8.47978       -0.17630        1.03244
O          8.94292        0.88682        1.87847
C          6.43592       -1.14521       -0.00148
H         -0.29330        1.58584        2.13100
H          0.09261        0.49024        3.47026
H         -0.04653       -0.14150        1.81805
H          2.11409        1.85825        2.75729
H          1.97762        1.20605        1.12808
H          2.34369       -1.12531        2.05407
H          2.53453       -0.43889        3.66486
H          4.49841        0.92044        2.82679
H          4.30224        0.20109        1.23803
H          4.63530       -2.08590        2.19642
H          4.78048       -1.41787        3.80257
H          8.16496       -2.65282        2.31635
H          6.57757       -3.17473        1.72318
H          6.41775       -4.26909        3.73196
H          6.64271       -4.39296        6.10722
H          6.60656       -2.91745        6.97740
H          7.16462       -0.88283        5.91671
H          8.34676       -0.48246        3.60702
H          5.76853        0.90393        4.49414
H          6.99474        1.55400        3.39165
H          7.47352        2.51725        5.51609
H          8.72018        1.29184        5.24777
H          6.40691        1.04475        7.04985
H          7.99316        0.92926        7.41808
H          6.51661        0.57156        1.29025
H          8.61987        0.09861       -0.02574
H          9.07271       -1.09551        1.20450
H          9.81173        1.17381        1.55891
H          7.02620       -2.03894       -0.25290
H          6.48462       -0.47484       -0.86866
H          5.39082       -1.45793        0.10942
