109

C         11.79102       14.75922       -2.67110
C         11.50358       13.46405       -1.90845
C         12.57459       13.12898       -0.86572
C         12.30037       11.83636       -0.09122
C         13.38246       11.50048        0.93946
C         13.09640       10.22751        1.74303
C         14.17296        9.90967        2.78576
C         13.84597        8.69533        3.66131
C         14.90337        8.41910        4.73524
C         14.51957        7.30020        5.71041
C         15.55120        7.09546        6.82556
C         15.10200        6.12489        7.92529
C         16.10794        6.02299        9.08279
C         15.59560        5.30162       10.33879
C         15.41869        3.78108       10.25554
N         16.67132        2.97777       10.22476
C         17.02830        2.30047        9.12203
N         17.72477        1.14450        9.16365
C         17.57483        0.05536       10.14825
C         18.29315       -1.20907        9.67339
C         17.75086       -1.81411        8.37149
P         18.44164       -3.47928        8.08212
O         18.20477       -4.44987        9.17705
O         17.76610       -3.79215        6.66344
C         17.86253       -5.13109        6.07965
C         16.92742       -5.19586        4.89118
O         19.99586       -3.18212        7.77283
C         21.06515       -3.96760        8.39421
C         21.73463       -4.86313        7.37093
N         16.70459        2.78444        7.90010
C         17.42120        2.89778       11.50650
C         18.95106        2.93407       11.40487
C         19.58451        4.15371       10.70443
C         19.42560        5.44460       11.52906
C         19.80035        6.73400       10.77299
C         19.47788        7.97791       11.55110
C         20.32345        8.94054       11.96454
C         21.80756        8.94643       11.71141
C         19.81623       10.13357       12.73113
C         21.05911        3.84825       10.40234
H         11.01553       14.96801       -3.42109
H         12.75633       14.70500       -3.19616
H         11.83490       15.62123       -1.98887
H         11.41764       12.62685       -2.62123
H         10.52289       13.53906       -1.40940
H         12.66272       13.96866       -0.15379
H         13.55597       13.05358       -1.36639
H         12.20149       10.99825       -0.80333
H         11.32413       11.91774        0.41833
H         13.49547       12.34943        1.63654
H         14.35464       11.39918        0.42601
H         12.98840        9.37261        1.05262
H         12.12090       10.33225        2.25019
H         14.31586       10.79075        3.43589
H         15.14005        9.74926        2.27781
H         13.71927        7.80197        3.02533
H         12.87009        8.85994        4.15106
H         15.07764        9.34498        5.31116
H         15.86679        8.17787        4.25296
H         14.37133        6.35631        5.15677
H         13.54300        7.54233        6.16487
H         15.76534        8.07091        7.29558
H         16.50860        6.75742        6.39070
H         14.88435        5.13481        7.47874
H         14.13537        6.46944        8.33100
H         16.38053        7.04771        9.38068
H         17.06082        5.57706        8.74084
H         14.60875        5.71225       10.60676
H         16.25087        5.53988       11.19031
H         14.81671        3.49588        9.38287
H         14.86837        3.43418       11.14432
H         18.19416        0.88983        8.29836
H         16.50194       -0.14281       10.29963
H         18.00302        0.35796       11.11444
H         18.19424       -1.95051       10.48005
H         19.37091       -1.00224        9.57529
H         17.97566       -1.20437        7.48216
H         16.65888       -1.94494        8.42033
H         17.59664       -5.86681        6.85222
H         18.90716       -5.29769        5.77376
H         15.88799       -5.02198        5.19809
H         16.98794       -6.19246        4.43317
H         17.20120       -4.45223        4.13141
H         20.63691       -4.54386        9.22581
H         21.77196       -3.22802        8.79585
H         21.04822       -5.63988        7.00784
H         22.59651       -5.36580        7.83190
H         22.09697       -4.28235        6.51267
H         16.43942        3.75619        7.77897
H         16.60283        2.16123        7.10861
H         17.09711        2.00524       12.06586
H         17.07320        3.76135       12.08683
H         19.32009        2.01958       10.91927
H         19.31895        2.88563       12.44368
H         19.07038        4.30576        9.73641
H         20.03950        5.36527       12.44259
H         18.38414        5.54468       11.87914
H         19.24164        6.74848        9.81788
H         20.86392        6.71213       10.49953
H         18.41802        8.10145       11.80730
H         22.17214        8.05123       11.19463
H         22.35866        9.03932       12.66060
H         22.09028        9.82323       11.10649
H         18.73152       10.08941       12.89177
H         20.04812       11.06947       12.19747
H         20.30872       10.20963       13.71382
H         21.62182        3.68153       11.33342
H         21.54398        4.67181        9.86382
H         21.16199        2.94482        9.78386
