97

C          4.74170        0.43662       -3.43229
C          5.39039        1.23548       -2.29915
C          5.24210        0.56968       -0.92656
C          5.90154        1.35350        0.21257
C          5.73566        0.69087        1.58376
C          6.41295        1.45994        2.72291
C          6.21730        0.79627        4.08928
C          6.92743        1.56082        5.21367
N          6.74896        0.94151        6.53785
C          5.76422        1.28814        7.38804
S          5.56635        0.60105        8.91367
S          4.69244        2.57953        6.75766
C          3.51020        2.77724        8.11356
C          2.39932        1.71234        8.12304
C          1.95826        1.42070        9.56095
N          1.01908        0.29319        9.64156
N         -0.31342        0.53321        9.78511
C         -0.85069       -0.66187        9.82801
N          0.09471       -1.64651        9.70721
C          1.29554       -1.01888        9.58362
C          2.63695       -1.63018        9.40758
C          3.04020       -2.41842       10.67643
O          2.27912       -2.42206       11.65212
N          4.22454       -3.07367       10.64022
C          5.14682       -3.07508        9.49527
C          4.93644       -4.25540        8.54391
C          4.64033       -3.80936       11.84949
C          5.44440       -2.93974       12.81639
C         -0.16001       -3.10405        9.81551
C          0.27796       -3.87226        8.60125
C          1.13120       -4.89667        8.66912
C          7.71777       -0.11222        6.88393
C          8.97517        0.42366        7.57679
C          9.97506       -0.69887        7.87098
C         11.28095       -0.20514        8.50240
C         12.28340       -1.33139        8.77426
C         13.60992       -0.84807        9.36863
C         14.60950       -1.97970        9.63352
C         15.93844       -1.49330       10.21707
H          4.86339        0.94026       -4.40083
H          3.66310        0.30270       -3.26116
H          5.18848       -0.56489       -3.52119
H          4.95066        2.24643       -2.26071
H          6.46186        1.38137       -2.51693
H          5.67277       -0.44665       -0.96676
H          4.16897        0.43267       -0.70322
H          5.48076        2.37369        0.24732
H          6.97679        1.47815       -0.00486
H          6.14295       -0.33474        1.54551
H          4.65997        0.58093        1.80783
H          6.01836        2.49020        2.75649
H          7.49189        1.55466        2.50926
H          6.59680       -0.23862        4.05699
H          5.14262        0.72966        4.32277
H          6.58150        2.60414        5.25797
H          8.01025        1.60583        5.02360
H          3.10753        3.79063        7.97801
H          4.09405        2.75252        9.04512
H          2.78945        0.78707        7.67771
H          1.54123        2.03308        7.51540
H          1.43246        2.26661       10.01888
H          2.83332        1.17376       10.17802
H         -1.91093       -0.85766        9.95176
H          3.37879       -0.84031        9.19511
H          2.61635       -2.29120        8.52840
H          6.16599       -3.09621        9.90723
H          5.07504       -2.11685        8.96269
H          5.02612       -5.21704        9.06694
H          5.69118       -4.23562        7.74611
H          3.94482       -4.22130        8.07132
H          5.22919       -4.67540       11.51512
H          3.73273       -4.18433       12.33777
H          6.34255       -2.52427       12.33828
H          5.76912       -3.53858       13.67786
H          4.83213       -2.10917       13.18985
H         -1.24562       -3.19686        9.96503
H          0.34966       -3.44981       10.72474
H         -0.17432       -3.58361        7.64786
H          1.58496       -5.20038        9.61487
H          1.39103       -5.47880        7.78535
H          7.98506       -0.61958        5.94444
H          7.20567       -0.83539        7.53221
H          8.68099        0.92728        8.51049
H          9.45110        1.18743        6.93946
H         10.20820       -1.23704        6.93490
H          9.50329       -1.44175        8.53834
H         11.05640        0.32498        9.44414
H         11.74490        0.54355        7.83693
H         12.48365       -1.87352        7.83320
H         11.82598       -2.07044        9.45577
H         13.41466       -0.30536       10.31032
H         14.06795       -0.11051        8.68622
H         14.79723       -2.52367        8.69210
H         14.15198       -2.71372       10.31875
H         16.44408       -0.79590        9.53266
H         16.62545       -2.32963       10.40515
H         15.78754       -0.96702       11.17135
