37

N          6.69096       -0.21577       -2.90873
C          5.92397       -0.20220       -1.67219
C          5.51172       -1.65381       -1.38229
S          4.79864       -1.77119        0.30313
C          2.94446       -1.90153       -0.13523
C          2.07220       -1.64856        1.12872
F          0.78955       -1.92657        0.81934
F          2.49154       -2.49266        2.12104
F          2.71378       -0.91547       -1.03372
F          2.66866       -3.08693       -0.70621
C          5.16621       -3.48222        0.86636
C          6.69391       -3.59511        0.87286
O          7.19370       -2.31817        1.21323
Si         8.85403       -1.87105        1.12790
C          9.42602       -2.06686       -0.64833
C          8.83169       -0.08737        1.67984
C          9.81387       -2.98340        2.28387
H          7.29952        0.59771       -2.98006
H          6.09274       -0.22439       -3.73472
H          5.03089        0.45074       -1.67668
H          6.57728        0.14550       -0.85921
H          6.39465       -2.30306       -1.37782
H          4.78091       -2.05116       -2.09898
H          2.16149       -0.60449        1.47137
H          4.66334       -4.21031        0.21910
H          4.73981       -3.51263        1.87696
H          7.05514       -3.93405       -0.11519
H          6.98099       -4.36640        1.60911
H          8.83195       -1.47436       -1.35892
H          9.41097       -3.11528       -0.97889
H         10.46860       -1.72670       -0.73243
H          8.21885        0.54195        1.01959
H          9.85124        0.32327        1.67021
H          8.44273        0.00803        2.70235
H          9.78145       -4.03534        1.96715
H          9.43087       -2.91883        3.31147
H         10.87202       -2.68424        2.30280
