41

C          2.58718       -1.68395       -3.89482
C          2.50934       -2.95010       -3.06723
O          3.11696       -2.74745       -1.73177
C          4.41322       -2.99711       -1.61765
O          5.17207       -3.38413       -2.49367
C          4.92173       -2.75139       -0.19900
P          6.72654       -3.01447       -0.23969
C          7.42968       -2.57257        1.40330
C          8.92811       -2.83448        1.22316
O          9.36918       -3.19290        0.13787
O          9.62249       -2.62408        2.32987
C         11.08652       -2.83737        2.25548
C         11.44213       -4.29875        2.43862
C          7.09595       -1.14130        1.86119
C          7.00863       -4.85424       -0.51275
O          6.55018       -5.59002        0.33361
O          7.68655       -5.10691       -1.60382
C          8.02984       -6.53026       -1.87388
C          9.32661       -6.89615       -1.18369
H          2.06289       -1.84954       -4.84623
H          3.62577       -1.41631       -4.12785
H          2.10138       -0.84262       -3.38413
H          3.02270       -3.79339       -3.54515
H          1.47702       -3.22909       -2.82880
H          4.47300       -3.46179        0.51270
H          4.68384       -1.73640        0.14902
H          7.27752       -2.17287       -1.22634
H          7.02310       -3.30634        2.12065
H         11.46539       -2.21201        3.07129
H         11.43211       -2.44128        1.29231
H         11.04833       -4.68907        3.38579
H         12.53652       -4.39452        2.46331
H         11.07047       -4.91366        1.60924
H          7.43424       -0.39035        1.13431
H          7.61093       -0.94745        2.80999
H          6.02099       -1.01065        2.03471
H          8.11049       -6.55251       -2.96588
H          7.18294       -7.14615       -1.54738
H         10.13817       -6.22141       -1.48321
H          9.60443       -7.91816       -1.47652
H          9.22278       -6.87684       -0.09122
