97

C          0.61798       -0.10490       -0.02551
C          2.14778       -0.05354       -0.02699
C          2.72301        1.07237       -0.89428
C          4.25374        1.12919       -0.87982
C          4.84842        2.25734       -1.72954
C          6.37901        2.30761       -1.67523
C          6.99818        3.45758       -2.47620
C          8.52805        3.49655       -2.39202
C          9.15983        4.66312       -3.15790
C         10.69052        4.68952       -3.07159
C         11.30950        5.87401       -3.82534
C         12.82623        5.87508       -3.77076
O         13.30127        7.02394       -4.51169
C         14.69903        7.10996       -4.57128
C         15.04236        8.39130       -5.26081
N         16.06313        8.54111       -6.04644
C         16.26091        9.90410       -6.59110
C         14.91055       10.59136       -6.22473
C         14.29259        9.66761       -5.13858
C         13.95449       10.73272       -7.42638
C         14.29238       11.83395       -8.47138
C         14.80282       11.28539       -9.81716
N         16.12129       10.65982       -9.68904
C         16.50443        9.76412      -10.78580
C         17.78749        9.01669      -10.40845
O         18.30074        8.21007      -11.45740
O         13.17106       12.69508       -8.68206
C         17.54858       10.53230       -6.03995
C         17.80455       11.90649       -6.68886
C         19.27055       12.18693       -7.02515
N         19.35012       13.35330       -7.89611
C         20.72933       13.72185       -8.26644
C         20.76001       14.97083       -9.11260
C         21.13418       14.93648      -10.46049
C         21.17446       16.09406      -11.24173
C         20.82962       17.32051      -10.67085
C         20.44733       17.38465       -9.33001
C         20.41389       16.21892       -8.56036
O         20.03409       16.23528       -7.23288
H          0.24288       -0.92514        0.60198
H          0.22136       -0.25576       -1.04075
H          0.18701        0.83126        0.36020
H          2.54842       -1.01997       -0.37767
H          2.51328        0.06508        1.00733
H          2.31779        2.04039       -0.54938
H          2.36820        0.95105       -1.93318
H          4.65696        0.16140       -1.22728
H          4.60161        1.24134        0.16245
H          4.43888        3.22506       -1.38955
H          4.52002        2.14250       -2.77761
H          6.78738        1.34847       -2.03991
H          6.69999        2.38832       -0.62158
H          6.58835        4.41665       -2.11304
H          6.69020        3.37901       -3.53373
H          8.93812        2.54470       -2.77323
H          8.83145        3.55143       -1.33165
H          8.75656        5.61529       -2.77099
H          8.85612        4.61452       -4.21822
H         11.09337        3.74386       -3.47385
H         10.99594        4.72491       -2.01162
H         10.93815        6.82225       -3.40434
H         10.99536        5.85113       -4.88134
H         13.24210        4.95480       -4.22239
H         13.19479        5.94100       -2.72954
H         15.16050        6.24609       -5.09389
H         15.15914        7.15138       -3.55623
H         16.71145        7.78104       -6.26264
H         16.35147        9.82528       -7.69421
H         15.10237       11.58688       -5.80302
H         13.21476        9.48743       -5.26495
H         14.40786       10.04344       -4.10665
H         12.96506       10.99779       -7.02477
H         13.84262        9.75346       -7.92436
H         15.06003       12.50629       -8.05251
H         14.78664       12.11236      -10.55077
H         14.09606       10.51809      -10.17918
H         16.82707       11.39799       -9.61560
H         16.65799       10.28582      -11.74996
H         15.68407        9.04183      -10.93647
H         17.60837        8.42495       -9.48699
H         18.58547        9.74092      -10.17751
H         17.65334        7.52071      -11.67487
H         12.50195       12.22315       -9.20570
H         18.38875        9.85653       -6.27377
H         17.50304       10.60480       -4.94155
H         17.40788       12.70787       -6.04628
H         17.25118       11.97599       -7.63521
H         19.68749       11.32398       -7.57538
H         19.87094       12.28011       -6.09254
H         18.93441       14.15931       -7.42220
H         21.16289       12.88845       -8.84073
H         21.37052       13.86539       -7.37093
H         21.40716       13.97544      -10.90167
H         21.47550       16.03972      -12.28754
H         20.85555       18.23375      -11.26607
H         20.17457       18.34185       -8.87752
H         19.88036       17.15578       -6.96493
