65

C         12.00458        0.54931        4.75004
C         10.83963        0.27115        3.79736
C         11.12178       -0.86326        2.80566
C          9.95864       -1.14189        1.84847
C         10.23572       -2.27965        0.85914
C          9.06061       -2.55476       -0.08499
C          9.35022       -3.65983       -1.10542
C          8.14176       -3.91278       -2.04452
C          8.45296       -4.97316       -3.05252
C          9.01301       -4.66161       -4.30573
C          9.35153       -5.67388       -5.17432
N          9.17841       -6.98551       -4.85286
C          8.63286       -7.34416       -3.64798
C          8.26471       -6.32998       -2.76563
C          8.51981       -8.78878       -3.25687
C          9.83040       -9.34013       -2.62974
C         10.24241       -8.63269       -1.33728
C         11.54318       -9.16933       -0.73288
C         11.98897       -8.38054        0.50412
N         12.23412       -6.96651        0.16774
C          9.52996       -7.99247       -5.89316
C          8.36498       -8.26862       -6.84755
C          8.72713       -9.33610       -7.88838
C          7.58631       -9.61260       -8.87058
H         11.76631        1.36212        5.44918
H         12.91164        0.84029        4.19976
H         12.25273       -0.34009        5.34849
H         10.59403        1.18920        3.23719
H          9.93698        0.02420        4.38136
H         11.36368       -1.78425        3.36542
H         12.02634       -0.61937        2.22086
H          9.72075       -0.22182        1.28637
H          9.05319       -1.37976        2.43379
H         10.48076       -3.20061        1.41647
H         11.13376       -2.03619        0.26494
H          8.79586       -1.62656       -0.62005
H          8.17018       -2.82780        0.50717
H          9.61770       -4.59867       -0.59231
H         10.22738       -3.38636       -1.71523
H          7.87727       -2.97577       -2.55680
H          7.27198       -4.21557       -1.44215
H          9.18276       -3.62811       -4.60594
H          9.77430       -5.48455       -6.15959
H          7.83134       -6.62641       -1.81050
H          8.21546       -9.41005       -4.10943
H          7.71192       -8.86524       -2.51576
H         10.65176       -9.27629       -3.36360
H          9.67170      -10.41388       -2.44465
H          9.43047       -8.72745       -0.59440
H         10.37706       -7.55344       -1.50876
H         12.34511       -9.13093       -1.49183
H         11.43331      -10.23069       -0.45893
H         12.86278       -8.88702        0.95422
H         11.18764       -8.40694        1.25959
H         13.10312       -6.88068       -0.36374
H         12.37422       -6.42163        1.01915
H          9.86077       -8.90509       -5.38722
H         10.39775       -7.59225       -6.43354
H          8.07869       -7.33092       -7.35214
H          7.48296       -8.59053       -6.26972
H          9.00600      -10.26897       -7.37077
H          9.62410       -9.01517       -8.44345
H          6.68581       -9.97104       -8.35205
H          7.87625      -10.37907       -9.60017
H          7.31179       -8.70769       -9.43126
