98

C          0.33155        0.25729        0.13747
C          1.86108        0.20538        0.10455
C          2.41595       -0.90493       -0.79507
C          3.94608       -0.97767       -0.80562
C          4.51098       -2.09067       -1.69438
C          6.04067       -2.17368       -1.66560
C          6.62095       -3.29099       -2.53845
C          8.15075       -3.36547       -2.49444
C          8.74277       -4.48301       -3.35899
C         10.27393       -4.52831       -3.33321
C         10.87474       -5.64623       -4.19141
C         12.40590       -5.62316       -4.23777
C         13.01506       -6.74074       -5.09026
C         14.53979       -6.64867       -5.21641
C         15.15082       -7.77652       -6.05379
C         16.66339       -7.64062       -6.26073
C         17.25167       -8.78504       -7.09155
C         18.74899       -8.61384       -7.38584
C         19.42945       -9.82158       -8.08758
N         20.74587      -10.08513       -7.49932
C         21.75729       -9.11575       -7.87658
C         21.86254       -8.88337       -9.38540
N         20.49738       -8.56507       -9.96921
C         19.49786       -9.70606       -9.64344
C         18.15279       -9.50922      -10.34775
C         17.19198      -10.69386      -10.12609
C         15.85665      -10.42616      -10.80803
Br        14.62266      -11.92008      -10.53758
C         20.57817       -8.20506      -11.43328
C         21.42704       -6.95366      -11.66859
C         21.06127       -6.15768      -12.93488
C         21.74893       -6.56049      -14.29441
C         21.51642       -7.98625      -14.92882
C         20.05714       -8.42121      -15.32263
F         19.44185       -7.47904      -16.04122
F         20.12149       -9.55642      -16.02936
F         19.32200       -8.66762      -14.20335
F         22.26376       -8.03056      -16.05017
F         21.99752       -8.92685      -14.05094
F         21.39935       -5.63770      -15.21730
F         23.09540       -6.48063      -14.07776
F         19.70245       -6.13499      -13.12020
F         21.45983       -4.86850      -12.72115
H         -0.03181        1.06453        0.78842
H         -0.09146       -0.68688        0.51242
H         -0.08490        0.42762       -0.86672
H          2.24668        0.06659        1.12899
H          2.25595        1.17798       -0.23539
H          2.04730       -0.75776       -1.82583
H          2.00723       -1.87699       -0.46619
H          4.30894       -1.12044        0.22773
H          4.35535       -0.00612       -1.13506
H          4.17099       -1.93856       -2.73405
H          4.08723       -3.06032       -1.37825
H          6.37594       -2.31664       -0.62308
H          6.46377       -1.20506       -1.98602
H          6.29198       -3.14860       -3.58303
H          6.19858       -4.26030       -2.21959
H          8.47886       -3.50150       -1.44879
H          8.57068       -2.39598       -2.81650
H          8.40083       -4.35820       -4.40170
H          8.34075       -5.45587       -3.02516
H         10.62021       -4.64171       -2.29085
H         10.66964       -3.55587       -3.67652
H         10.48052       -5.56712       -5.22017
H         10.53171       -6.62499       -3.81229
H         12.80648       -5.68795       -3.21084
H         12.73926       -4.64545       -4.62903
H         12.56654       -6.71481       -6.09937
H         12.73883       -7.72085       -4.66324
H         14.99418       -6.65249       -4.21030
H         14.80682       -5.67522       -5.66475
H         14.65340       -7.80795       -7.03972
H         14.93247       -8.74726       -5.57589
H         17.17236       -7.59778       -5.28270
H         16.87676       -6.67678       -6.75685
H         16.67579       -8.86838       -8.02698
H         17.10427       -9.73940       -6.55789
H         19.27915       -8.46868       -6.43313
H         18.88793       -7.66728       -7.94571
H         18.82237      -10.71448       -7.88245
H         21.05345      -11.04105       -7.67841
H         22.73853       -9.44137       -7.50631
H         21.54537       -8.15479       -7.37572
H         22.21910       -9.77556       -9.91996
H         22.52945       -8.04237       -9.61356
H         20.13601       -7.73611       -9.46816
H         19.99118      -10.60934      -10.03817
H         18.29983       -9.41947      -11.43302
H         17.67916       -8.57156      -10.01105
H         17.01286      -10.87224       -9.05783
H         17.63737      -11.61513      -10.53249
H         15.95479      -10.30984      -11.89357
H         15.35244       -9.54457      -10.39409
H         19.55764       -8.01571      -11.77078
H         20.96274       -9.08694      -11.95702
H         22.50331       -7.16435      -11.70083
H         21.25842       -6.22913      -10.85472
