46

N          1.23868        0.69130        0.57033
C          2.64742        0.39124        0.32955
C          3.22533        1.46496       -0.61071
C          4.69567        1.34703       -0.80556
N          5.44604        0.37686       -0.32135
N          6.70277        0.69290       -0.72145
C          6.76671        1.81754       -1.43132
N          5.48569        2.25578       -1.50678
C          5.04523        3.51319       -2.14994
C          5.61998        4.73876       -1.47303
C          5.48867        4.91786       -0.08788
C          6.01633        6.05508        0.52421
C          6.67281        7.02387       -0.24236
C          6.80121        6.85201       -1.62237
C          6.28025        5.70935       -2.23583
C          8.01155        2.42387       -1.98686
C          9.23121        1.59445       -1.63258
C          9.87453        1.78636       -0.40215
C         10.96718        0.98475       -0.06283
C         11.41567       -0.00097       -0.94204
C         10.78783       -0.21015       -2.18146
C          9.69119        0.60068       -2.50863
C         11.27214       -1.28239       -3.12222
H          0.90829        0.22295        1.41250
H          0.64881        0.36731       -0.19676
H          2.84628       -0.61098       -0.09238
H          3.17999        0.43688        1.28983
H          2.97905        2.45669       -0.19726
H          2.72392        1.41176       -1.59294
H          7.49885        0.10610       -0.47389
H          3.94797        3.50636       -2.11261
H          5.33529        3.47428       -3.20918
H          4.97076        4.17299        0.52057
H          5.90772        6.19024        1.60050
H          7.08123        7.91324        0.23762
H          7.30998        7.60504       -2.22443
H          6.38469        5.57625       -3.31495
H          8.09473        3.45125       -1.59668
H          7.89722        2.52165       -3.07931
H          9.53398        2.56735        0.28088
H         11.47779        1.13893        0.88810
H         12.27593       -0.61486       -0.66888
H          9.19568        0.46135       -3.47352
H         12.36916       -1.31856       -3.15390
H         10.90457       -1.12418       -4.14382
H         10.92684       -2.27505       -2.79404
