61

O          4.85236       -2.88249        0.63556
C          3.51062       -2.88983        0.31504
C          2.62910       -3.83672        0.84540
C          1.27606       -3.79271        0.50724
C          0.80205       -2.80464       -0.35829
C          1.69401       -1.86736       -0.88226
C          3.05662       -1.89051       -0.56481
C          4.01161       -0.86684       -1.12763
N          4.32175        0.17452       -0.13374
C          5.14468        1.26206       -0.63212
C          5.25484        2.36213        0.43301
C          5.68847        3.75524       -0.05621
C          7.19454        3.97839       -0.24471
S          7.83805        2.94807       -1.67946
C          8.12136        4.33731       -2.60803
N          7.97257        5.47697       -1.99565
C          7.68955        5.45268       -0.54675
C          6.60229        6.51715       -0.24628
C          6.97134        7.97264       -0.55245
O          7.38169        8.16729       -1.92156
C          6.34927        8.60001       -2.79790
C          6.89141        8.50155       -4.22029
F          7.96081        9.29212       -4.42111
F          7.28852        7.21124       -4.49167
F          5.93544        8.82851       -5.10873
Si         9.40864        5.80297        0.40914
C         10.45737        4.24118        0.39020
C         10.38185        7.14524       -0.47965
C          8.94074        6.26506        2.16950
H          5.03875       -3.64668        1.20486
H          3.00375       -4.60649        1.52528
H          0.59361       -4.53361        0.92466
H         -0.25425       -2.76484       -0.62237
H          1.33029       -1.09223       -1.56014
H          3.53491       -0.37022       -1.98688
H          4.92361       -1.37162       -1.50711
H          4.75189       -0.26368        0.68358
H          4.64629        1.67176       -1.52816
H          6.15558        0.93137       -0.97196
H          5.91521        2.03550        1.25526
H          4.25216        2.46466        0.87343
H          5.36624        4.47714        0.70951
H          5.14170        4.01544       -0.97735
H          7.72011        3.58367        0.63613
H          8.40417        4.28879       -3.66020
H          8.03488        6.39599       -2.45810
H          6.34600        6.47209        0.82198
H          5.68312        6.26034       -0.79574
H          7.81448        8.31472        0.06105
H          6.11349        8.62187       -0.31741
H          6.06540        9.64753       -2.60349
H          5.44958        7.96380       -2.74160
H         10.72279        3.92795       -0.62814
H         10.00028        3.38774        0.90765
H         11.39787        4.46973        0.91375
H         10.64931        6.83601       -1.50009
H         11.32618        7.29410        0.06451
H          9.88233        8.11843       -0.54381
H          8.30168        5.50376        2.63884
H          8.42689        7.23287        2.23746
H          9.85652        6.33761        2.77356
