66

N          2.32599        1.08843       -0.16746
C          3.48207        0.21716        0.07171
C          3.72388       -0.68041       -1.14315
C          5.11373       -1.35211       -1.12305
C          5.41655       -2.10385       -2.39735
C          5.28121       -3.49078       -2.50955
C          5.58623       -4.13296       -3.74405
C          5.98092       -3.43237       -4.86424
C          6.09719       -2.02964       -4.80464
C          5.81974       -1.36703       -3.56084
C          5.92513        0.03296       -3.52963
N          6.25442        0.76447       -4.60746
C          6.53423        0.13865       -5.80092
C          6.46958       -1.22467       -5.90938
C          6.23977        2.29011       -4.47124
C          4.77011        2.70480       -4.12060
C          4.61597        4.22429       -3.94624
C          3.73197        2.17390       -5.11902
C          7.25115        2.67284       -3.34205
O          6.84028        2.36531       -2.01309
C          6.75277        2.94980       -5.75381
C          4.83042       -4.29259       -1.30080
C          4.37327       -5.73602       -1.50110
O          4.84503       -6.53895       -2.28318
O          3.39813       -6.01483       -0.61483
C          2.94149       -7.40633       -0.56437
C          2.12371       -7.58096        0.70188
C          1.62589       -9.02301        0.87302
C          0.82324       -9.22284        2.16107
H          2.18892        1.72265        0.62029
H          1.46832        0.53725       -0.23602
H          3.40295       -0.40898        0.98295
H          4.36089        0.86714        0.21705
H          3.61175       -0.06364       -2.04922
H          2.94025       -1.45356       -1.21082
H          5.19032       -2.02179       -0.25728
H          5.88369       -0.58198       -0.95645
H          5.49956       -5.21849       -3.78319
H          6.20053       -3.95665       -5.79495
H          5.75518        0.60396       -2.62257
H          6.79937        0.77433       -6.63688
H          6.69861       -1.68556       -6.87009
H          4.54964        2.24612       -3.14226
H          4.70169        4.76019       -4.90154
H          5.34847        4.66168       -3.25305
H          3.61960        4.44211       -3.54123
H          3.86494        2.60281       -6.12258
H          2.72581        2.45171       -4.78043
H          3.74865        1.07982       -5.21082
H          7.47717        3.74398       -3.44393
H          8.18818        2.12346       -3.51709
H          6.37029        3.12761       -1.64103
H          6.12115        2.74855       -6.62712
H          7.78555        2.65547       -5.98580
H          6.75590        4.03543       -5.60719
H          4.03111       -3.76626       -0.76568
H          5.67177       -4.35861       -0.58587
H          3.82529       -8.05985       -0.58527
H          2.35269       -7.60388       -1.47282
H          1.26709       -6.88788        0.68457
H          2.74271       -7.29694        1.56864
H          2.48768       -9.71058        0.86649
H          1.00621       -9.30352        0.00508
H          1.42855       -8.98994        3.04952
H          0.47806      -10.26054        2.25768
H         -0.06443       -8.57375        2.18538
