38

C          3.26522        0.49153       -2.34844
C          3.02087        0.19335       -0.88409
O          3.38707       -1.20479       -0.55650
C          4.65093       -1.43608       -0.22738
O          5.55176       -0.61531       -0.14970
C          4.88481       -2.92053        0.06624
P          6.63466       -3.14321        0.54502
C          6.99424       -2.34526        2.13571
C          8.42417       -1.67433        2.13445
N          8.55495       -0.48866        1.32273
N          8.64954       -1.24523        3.50041
N          9.33075       -2.68075        1.53007
C          7.05549       -4.92436        0.59188
C          6.66364       -5.79741       -0.61057
C          7.29891       -5.38174       -1.92919
F          8.64496       -5.27389       -1.83400
F          7.01014       -6.25614       -2.90725
F          6.83014       -4.15034       -2.33076
H          2.90622        1.50702       -2.56633
H          2.71821       -0.20607       -2.99527
H          4.33415        0.45393       -2.59371
H          1.95787        0.23637       -0.62276
H          3.59515        0.85373       -0.22290
H          4.67169       -3.51664       -0.83305
H          4.21418       -3.27601        0.86229
H          7.39566       -2.53186       -0.46388
H          6.93088       -3.12649        2.91079
H          6.22391       -1.59403        2.34637
H          7.91909        0.24529        1.63186
H          8.40445       -0.65736        0.32954
H          8.68930       -2.01893        4.16245
H          9.51324       -0.70432        3.55999
H         10.19063       -2.20723        1.23923
H          9.60415       -3.37138        2.23194
H          6.58447       -5.32959        1.50008
H          8.14366       -4.93894        0.74978
H          5.57678       -5.83428       -0.76489
H          6.99298       -6.82621       -0.40929
