82

C         -0.38856       -0.79508       -1.07886
C          0.99409       -0.26219       -1.46290
C          1.99056       -1.36522       -1.83739
C          3.36596       -0.83102       -2.24947
C          4.37892       -1.92616       -2.59990
C          5.72976       -1.37265       -3.06519
C          6.78439       -2.45132       -3.33501
C          8.10823       -1.88080       -3.85464
C          9.20804       -2.93317       -4.02999
C         10.51492       -2.34187       -4.57508
C         11.65123       -3.37268       -4.60177
C         12.99766       -2.88302       -5.18683
C         12.84444       -2.54912       -6.69088
C         14.01017       -2.92885       -7.60613
C         14.32161       -4.41521       -7.45231
C         14.85862       -4.74007       -6.06118
N         13.96725       -4.10021       -4.96344
C         16.32005       -4.32096       -5.82221
C         17.36944       -5.23424       -6.47460
C         17.58761       -6.64620       -5.92467
C         18.47155       -6.84661       -4.63225
C         18.01161       -6.31850       -3.21558
C         16.63076       -6.79195       -2.62963
F         16.55711       -6.43129       -1.34121
F         15.59758       -6.17478       -3.28241
F         16.46774       -8.11065       -2.73462
F         18.96123       -6.71275       -2.33866
F         17.99218       -4.94975       -3.23509
F         18.68860       -8.17678       -4.49432
F         19.66524       -6.22963       -4.87006
F         16.39260       -7.30614       -5.70702
F         18.25311       -7.35384       -6.88826
C         13.54131       -1.70457       -4.32170
C         15.02484       -1.42794       -4.37113
C         15.85502       -1.91732       -3.34783
C         17.23758       -1.70638       -3.37780
C         17.80829       -0.99573       -4.43447
C         16.98961       -0.47545       -5.44427
C         15.61015       -0.68456       -5.40956
H         -1.07417        0.02025       -0.81053
H         -0.33015       -1.47666       -0.21712
H         -0.84626       -1.35305       -1.90939
H          1.40675        0.32939       -0.62806
H          0.89646        0.43937       -2.30891
H          1.57209       -1.97037       -2.66117
H          2.10526       -2.05749       -0.98434
H          3.77459       -0.20836       -1.43403
H          3.24800       -0.15371       -3.11372
H          3.95974       -2.57600       -3.38822
H          4.53123       -2.57751       -1.72118
H          6.11791       -0.67272       -2.30418
H          5.57996       -0.77049       -3.97851
H          6.38898       -3.18086       -4.06348
H          6.96902       -3.02040       -2.40678
H          8.46586       -1.10121       -3.15912
H          7.93209       -1.36901       -4.81687
H          8.85635       -3.73280       -4.70456
H          9.40350       -3.41859       -3.05780
H         10.80544       -1.48369       -3.94851
H         10.33917       -1.94219       -5.58664
H         11.32418       -4.24958       -5.19002
H         11.82267       -3.72282       -3.56691
H         12.62512       -1.47613       -6.77022
H         11.94885       -3.07010       -7.06403
H         14.90241       -2.32149       -7.39853
H         13.72403       -2.71333       -8.64405
H         15.07017       -4.74622       -8.18569
H         13.41677       -5.01054       -7.65412
H         14.75925       -5.81350       -5.86724
H         14.61324       -3.81463       -4.20952
H         13.38484       -4.85112       -4.57733
H         16.51274       -4.25076       -4.74689
H         16.48634       -3.30697       -6.21113
H         18.34431       -4.72886       -6.44498
H         17.14466       -5.38799       -7.54070
H         13.26282       -1.90376       -3.27459
H         12.97818       -0.81073       -4.62277
H         15.41143       -2.43526       -2.49175
H         17.86272       -2.08507       -2.56895
H         18.88407       -0.82073       -4.45897
H         17.42761        0.11181       -6.25210
H         14.98011       -0.24611       -6.18564
