63

C          1.67572       -1.26083       -1.78011
C          2.70548       -0.16891       -2.00004
O          4.07502       -0.70061       -2.06396
P          4.87613       -1.04645       -0.72376
O          4.56750       -0.25428        0.48830
O          4.68057       -2.61533       -0.42985
C          4.68828       -3.64071       -1.46371
C          4.07834       -4.89769       -0.87752
C          6.61426       -0.83718       -1.25514
C          7.50287       -1.09337       -0.02807
C          8.89377       -0.48686       -0.14083
N          9.57597       -0.46912        1.20562
C         10.93820        0.28982        1.26283
O         11.85880       -0.72797        1.01492
C         11.45896       -1.79821        1.88609
C          9.92132       -1.87142        1.74312
Si         8.98887       -2.34899        3.38508
C          9.96897       -3.76474        4.13217
C          9.03265       -0.80923        4.47370
C          7.22272       -2.86894        3.02871
Si        11.26187        1.88927        0.19386
C         11.42130        1.45756       -1.62537
C          9.83760        3.05906        0.57617
C         12.87643        2.53475        0.89164
H          0.66901       -0.82147       -1.82186
H          1.79402       -1.73371       -0.79561
H          1.73889       -2.03291       -2.55888
H          2.67135        0.58787       -1.20437
H          2.57235        0.32534       -2.97025
H          5.73121       -3.81445       -1.78016
H          4.11931       -3.28058       -2.33303
H          4.64006       -5.23232        0.00493
H          4.09328       -5.70449       -1.62297
H          3.03709       -4.72187       -0.57789
H          6.69957        0.20302       -1.60352
H          6.86109       -1.49210       -2.10301
H          7.55804       -2.17324        0.16699
H          6.99727       -0.64029        0.84212
H          8.82048        0.55916       -0.46377
H          9.56018       -1.01918       -0.83194
H          8.93634        0.00009        1.86132
H         10.97938        0.59931        2.33112
H         11.77410       -1.55709        2.91657
H         11.95534       -2.71948        1.56257
H          9.66723       -2.57096        0.93608
H         10.99323       -3.47703        4.40422
H         10.02260       -4.62388        3.44921
H          9.46892       -4.10664        5.04949
H         10.05418       -0.46126        4.67989
H          8.56937       -1.04713        5.44231
H          8.45322        0.03180        4.06175
H          7.17504       -3.67727        2.28572
H          6.57877       -2.04958        2.68362
H          6.78109       -3.25687        3.95851
H         10.46125        1.24564       -2.11267
H         12.08189        0.59053       -1.76252
H         11.87663        2.30668       -2.15503
H          8.86213        2.71066        0.20908
H         10.02846        4.03080        0.09843
H          9.75108        3.24398        1.65661
H         13.69493        1.82190        0.72532
H         12.80649        2.73612        1.96962
H         13.14358        3.47786        0.39393
