37

Br         1.17832        0.42342        1.27888
C          2.97336        0.16543        0.92841
N          3.75071        1.05642        0.22538
C          5.00180        0.54991        0.15799
N          4.94754       -0.60152        0.84049
N          3.68570       -0.86735        1.31095
C          5.96298       -1.63538        0.93602
C          6.09702       -2.37712       -0.43334
O          5.57212       -1.86721       -1.41349
C          6.87523       -3.62844       -0.46826
C          7.02397       -4.27495       -1.71293
C          7.74914       -5.45740       -1.80160
C          8.33542       -6.00815       -0.65445
C          8.19488       -5.37441        0.58456
C          7.46721       -4.19043        0.68083
C          6.15662        1.20434       -0.52802
C          5.81782        2.61441       -0.97407
C          5.20464        2.83012       -2.21879
C          4.85952        4.12498       -2.61617
C          5.12524        5.21037       -1.77638
C          5.73761        5.00117       -0.53738
C          6.07950        3.70783       -0.13524
H          3.47711        1.94998       -0.18514
H          5.64978       -2.30392        1.74486
H          6.92638       -1.17996        1.20873
H          6.55951       -3.83144       -2.59348
H          7.85802       -5.95727       -2.76414
H          8.90134       -6.93761       -0.72649
H          8.64716       -5.80833        1.47606
H          7.36652       -3.71693        1.65821
H          6.43245        0.56931       -1.38495
H          7.01785        1.20252        0.15957
H          5.01303        1.98659       -2.88606
H          4.39386        4.28681       -3.58881
H          4.86389        6.22083       -2.09187
H          5.95754        5.84710        0.11441
H          6.56690        3.55098        0.82980
