93

C          0.49499       12.56648       -0.74302
C          2.02308       12.48808       -0.76200
C          2.57677       11.79027       -2.00821
C          4.10593       11.71616       -2.04303
C          4.65958       11.03060       -3.29571
C          6.18943       10.97437       -3.33712
C          6.74610       10.28296       -4.58530
C          8.27638       10.24277       -4.62697
C          8.84137        9.49732       -5.83995
C         10.37232        9.46851       -5.87032
C         10.95321        8.61245       -6.99923
C         12.48577        8.58280       -7.00225
C         13.07097        7.59650       -8.02066
C         14.60382        7.61408       -8.12843
C         15.28510        7.26320       -6.79937
N         16.75377        7.20735       -6.88845
C         17.57946        6.08055       -7.00425
C         17.08225        4.67815       -7.09129
C         18.07669        3.66212       -6.50281
C         17.58585        2.21571       -6.60881
C         16.31811        1.93443       -5.80773
O         15.66694        2.77899       -5.23291
O         15.91743        0.63673       -5.77081
N         18.84122        6.42993       -7.02753
N         18.82775        7.80056       -6.93829
C         17.57830        8.29305       -6.85013
N         17.22713        9.57663       -6.72792
C         18.19404       10.68626       -6.71870
C         17.45326       12.02036       -6.72879
C         18.39870       13.22581       -6.75429
N         17.62621       14.45449       -6.86573
C         18.45543       15.66014       -7.06840
C         17.59331       16.89907       -7.13058
C         16.80167       17.15768       -8.25821
C         15.98992       18.28883       -8.34412
C         15.96497       19.19532       -7.27978
C         16.74002       18.96230       -6.14482
C         17.54563       17.81822       -6.06531
O         18.30892       17.55330       -4.95146
H          0.12745       13.07457        0.15911
H          0.04482       11.56287       -0.76702
H          0.11483       13.11925       -1.61505
H          2.37758       11.95776        0.13800
H          2.44569       13.50525       -0.70001
H          2.21692       12.31776       -2.90927
H          2.15951       10.76958       -2.06917
H          4.46609       11.18241       -1.14586
H          4.52082       12.73731       -1.97410
H          4.29041       11.55788       -4.19281
H          4.25495       10.00522       -3.35958
H          6.55947       10.45167       -2.43744
H          6.59282       12.00068       -3.27790
H          6.36910       10.79564       -5.48741
H          6.35320        9.25233       -4.63592
H          8.65166        9.76472       -3.70480
H          8.66894       11.27482       -4.61423
H          8.46360        9.95979       -6.76813
H          8.45852        8.46185       -5.83857
H         10.74306        9.08265       -4.90385
H         10.75644       10.50053       -5.95270
H         10.59218        8.98040       -7.97467
H         10.57288        7.58096       -6.90241
H         12.82441        8.32410       -5.98368
H         12.86892        9.59925       -7.20827
H         12.66027        7.81539       -9.01846
H         12.73653        6.57468       -7.77367
H         14.93930        8.60815       -8.47059
H         14.93224        6.89487       -8.89450
H         14.95036        6.28185       -6.43855
H         15.03485        7.98494       -6.00778
H         16.87710        4.44415       -8.15113
H         16.12847        4.58643       -6.55394
H         18.24776        3.90824       -5.44497
H         19.04518        3.74992       -7.01265
H         18.37782        1.53524       -6.25665
H         17.39488        1.93755       -7.66008
H         16.54346        0.06796       -6.25359
H         19.70225        8.31331       -6.92382
H         16.23942        9.80813       -6.75441
H         18.84010       10.60895       -7.61061
H         18.83217       10.60193       -5.82303
H         16.80520       12.08023       -5.83790
H         16.80108       12.07673       -7.61457
H         19.05010       13.16085       -7.64295
H         19.07390       13.19528       -5.86962
H         17.05611       14.58998       -6.02759
H         18.98118       15.53316       -8.02931
H         19.22743       15.77762       -6.28587
H         16.83218       16.44459       -9.08475
H         15.38798       18.46810       -9.23472
H         15.34265       20.08952       -7.33020
H         16.72384       19.66826       -5.30993
H         18.20894       18.28901       -4.32570
