49

C          4.58063        3.75401        0.32786
C          5.69001        2.74273        0.02875
C          6.07704        1.91475        1.26235
C          7.18547        0.92252        0.95023
O          7.60874        0.21829        2.17447
C          6.99330       -0.92421        2.46338
O          6.11760       -1.47820        1.82729
C          7.59856       -1.50701        3.77731
O          8.89101       -2.00956        3.58343
C          8.86694       -3.22277        2.80659
C         10.29763       -3.67115        2.53697
C         11.08780       -4.15756        3.75671
O         10.45232       -5.40664        4.16156
C         12.56041       -4.37481        3.43942
N          8.11667       -4.22655        3.55826
C          7.05552       -3.83506        4.29101
N          6.38419       -4.76599        4.99358
N          6.69494       -2.54191        4.32437
C          5.43567       -2.08836        4.92988
C          4.17347       -2.46876        4.11904
C          3.06354       -2.98169        5.01609
F          3.47929       -4.10812        5.70828
F          2.70125       -2.07384        5.95270
F          1.97110       -3.33079        4.31796
H          4.32243        4.33253       -0.56847
H          4.88752        4.46658        1.10689
H          3.66512        3.25310        0.67473
H          6.58043        3.27117       -0.34965
H          5.36787        2.06652       -0.77985
H          5.19393        1.36950        1.63346
H          6.41164        2.58311        2.07194
H          8.10084        1.42234        0.61073
H          6.87428        0.17160        0.21238
H          7.69410       -0.70495        4.52441
H          8.34524       -3.02871        1.85404
H         10.81473       -2.81661        2.08080
H         10.27377       -4.47481        1.78484
H         10.98530       -3.42588        4.57774
H         10.96090       -5.79669        4.89086
H         12.68410       -5.08569        2.61106
H         13.09357       -4.76915        4.31628
H         13.04205       -3.42636        3.16503
H          8.70667       -4.98945        3.93416
H          6.54664       -5.74279        4.78014
H          5.53726       -4.54799        5.50833
H          5.50985       -0.99909        5.02462
H          5.37712       -2.46513        5.96259
H          4.39706       -3.25078        3.38292
H          3.78913       -1.61070        3.55568
