44

O          1.01954       -2.03405        1.52490
C          1.95214       -1.10285        1.00366
C          3.28146       -1.42254        1.70380
N          4.34551       -0.46385        1.38889
C          5.21412       -0.80795        0.24742
C          5.90079        0.42021       -0.33306
C          6.94615        0.02809       -1.39811
C          7.56234        1.22401       -2.07085
C          8.85077        1.56461       -1.98503
C          6.53179        1.20232        0.81249
N          5.53162        1.51782        1.84564
C          4.50698        0.67658        2.09103
N          3.60779        0.99435        3.05280
C          5.67572        2.79721        2.55007
C          4.83582        3.92430        1.91079
O          4.74800        5.02338        2.81165
C          5.45647        6.20383        2.48216
C          6.96535        6.11464        2.74036
F          7.24255        5.62553        3.97033
F          7.58436        5.28591        1.83709
F          7.53140        7.33200        2.62310
H          0.19263       -1.98333        1.02112
H          1.65212       -0.05755        1.20985
H          2.07353       -1.20146       -0.09008
H          3.63110       -2.41716        1.39673
H          3.12616       -1.49458        2.79118
H          4.58195       -1.28756       -0.51288
H          5.95864       -1.55340        0.57699
H          5.13425        1.06123       -0.80324
H          6.44890       -0.60550       -2.15195
H          7.73223       -0.58940       -0.93319
H          6.88275        1.84237       -2.66801
H          9.56534        0.96746       -1.41358
H          9.24435        2.44076       -2.49966
H          6.94507        2.15034        0.44705
H          7.36503        0.63451        1.26305
H          3.80785        1.73518        3.71087
H          2.88750        0.33633        3.31605
H          6.74181        3.05196        2.53947
H          5.41165        2.70254        3.61414
H          3.80870        3.56603        1.73285
H          5.26343        4.22221        0.94004
H          5.05944        6.99321        3.13382
H          5.30934        6.50358        1.43075
