47

C          0.92633       -0.16565        0.39666
C          2.44877       -0.16319        0.23468
C          3.10196        0.98242        1.02422
C          4.63920        0.95225        1.07017
C          5.25605        1.09929       -0.33462
C          6.78086        1.12386       -0.43446
O          7.08778        1.28549       -1.80125
C          8.49045        1.27840       -2.06939
C          8.67200        1.45177       -3.57006
O         10.06313        1.45029       -3.82327
C         10.36433        1.55334       -5.20997
C          5.14457       -0.30986        1.83076
N          6.21140        0.21771        2.68471
C          6.10565        1.55493        2.80108
N          6.86887        2.28467        3.62007
N          5.16297        2.04391        1.98275
C          4.96350        3.47489        1.73306
C          4.40305        4.23376        2.90942
C          4.99574        5.22258        3.58812
Br         6.77116        5.81414        3.25725
Br         2.64059        3.76219        3.45497
H          0.47095       -0.97515       -0.18744
H          0.48545        0.78072        0.05198
H          0.63456       -0.30674        1.44719
H          2.70291       -0.08022       -0.83255
H          2.84970       -1.13435        0.57089
H          2.73757        0.96526        2.06303
H          2.76672        1.94119        0.59640
H          4.86451        2.01341       -0.80907
H          4.88884        0.26697       -0.95206
H          7.22876        0.18612       -0.04545
H          7.21747        1.95694        0.15806
H          8.94472        0.32508       -1.74062
H          8.99455        2.10174       -1.52891
H          8.20331        2.40030       -3.89923
H          8.16517        0.62534       -4.10580
H         11.45638        1.55022       -5.29970
H          9.96764        2.49052       -5.64102
H          9.95066        0.69965       -5.77649
H          5.53437       -1.07440        1.14794
H          4.34266       -0.75272        2.44139
H          6.67620       -0.34954        3.38502
H          7.59938        1.84342        4.16430
H          6.86037        3.30384        3.59581
H          4.26473        3.55756        0.89034
H          5.90766        3.94576        1.41457
H          4.51960        5.76600        4.40084
