62

C          1.29586       -0.17106       -0.56553
C          2.78751       -0.07898       -0.22741
C          3.04367       -0.38132        1.23729
O          4.48651       -0.28678        1.47057
C          4.89729       -0.50919        2.73073
O          4.16702       -0.78890        3.66343
C          6.41044       -0.36209        2.83474
C          6.94494       -0.77631        4.21336
C          6.78447       -2.26932        4.49874
N          7.82114       -3.02355        3.78160
C          8.94906       -2.49398        3.27533
N          9.76262       -3.30224        2.54663
N          9.23588       -1.19661        3.43224
C          8.42477       -0.39297        4.38781
C          8.99186       -0.53116        5.81167
C          8.26324        0.30699        6.86587
C          8.93859        0.23517        8.23957
C          8.17910        1.00830        9.31972
C          8.84949        0.94128       10.69313
N          8.02786        1.62465       11.69607
C         10.44639       -0.60263        2.80117
C         10.30215        0.87450        2.53307
C          9.50987        1.32406        1.46547
C          9.36583        2.69053        1.22472
C         10.01786        3.61856        2.04427
C         10.81779        3.17738        3.10107
C         10.95886        1.80874        3.34452
H          1.12403        0.05192       -1.62597
H          0.70275        0.54269        0.02393
H          0.89861       -1.17748       -0.36984
H          3.16841        0.92759       -0.45914
H          3.36133       -0.78568       -0.84705
H          2.71595       -1.39426        1.51561
H          2.53779        0.33129        1.90516
H          6.65964        0.69271        2.63738
H          6.87063       -0.92885        2.01091
H          6.35788       -0.24202        4.97128
H          5.79916       -2.62593        4.17499
H          6.87276       -2.47037        5.57728
H          7.72247       -4.03175        3.73758
H          9.50947       -4.27351        2.41517
H         10.74441       -3.08174        2.44721
H          8.54558        0.64921        4.06359
H         10.05070       -0.22603        5.77985
H          8.99597       -1.59173        6.11635
H          7.21908       -0.03176        6.96744
H          8.21265        1.35796        6.53248
H          9.97121        0.61734        8.15973
H          9.02929       -0.82258        8.54388
H          7.15234        0.61956        9.41592
H          8.08030        2.06532        9.01449
H          9.88562        1.33197       10.61054
H          8.93875       -0.11352       11.00052
H          8.01855        2.63227       11.52945
H          8.41251        1.49064       12.63112
H         10.60573       -1.12250        1.84582
H         11.32276       -0.78289        3.44566
H          9.00610        0.60174        0.81930
H          8.75428        3.03386        0.38989
H          9.91033        4.68604        1.85057
H         11.33707        3.89781        3.73339
H         11.58845        1.46431        4.16796
