81

C          4.34746       -2.11553       -0.84790
C          5.47087       -1.10856       -0.69090
O          5.24858        0.10867       -1.48822
P          5.56800        0.16641       -3.04912
O          6.80455       -0.57501       -3.46698
O          4.33682       -0.43990       -3.85991
C          2.93734       -0.11481       -3.57416
C          2.30282        0.51920       -4.79516
C          5.61576        1.95624       -3.37548
C          6.54598        2.82586       -2.50459
C          8.02791        2.39496       -2.37501
C          8.74143        2.18531       -3.66854
N          9.51407        3.05418       -4.27212
N          9.91896        2.42494       -5.43221
C          9.38102        1.18585       -5.51861
N          9.51269        0.30694       -6.52422
C          9.13226       -1.10462       -6.39692
C          9.38134       -1.76469       -7.75209
O         10.68216       -1.38772       -8.17736
Si        11.53058       -2.13903       -9.44458
C         10.50029       -2.05353      -11.01130
C         13.09810       -1.12683       -9.57621
C         11.87814       -3.92255       -8.97741
N          8.64505        1.01487       -4.39714
C         10.69738        3.15076       -6.43876
C          9.85279        3.59547       -7.64312
C          8.63698        4.43989       -7.23423
N          9.03923        5.56182       -6.39815
C          7.98510        6.10675       -5.53231
C          8.55954        7.12195       -4.56911
C          9.63330        6.77418       -3.73615
C         10.19752        7.69027       -2.84871
C          9.68297        8.98900       -2.78259
C          8.61396        9.35840       -3.59626
C          8.05331        8.43163       -4.48613
O          6.99889        8.76792       -5.30197
H          4.50992       -2.94572       -0.14631
H          4.31402       -2.53628       -1.86133
H          3.37471       -1.66274       -0.61414
H          6.44428       -1.52965       -0.97835
H          5.53648       -0.73402        0.33753
H          2.87975        0.53742       -2.68978
H          2.45829       -1.06948       -3.31750
H          2.77056        1.48238       -5.03972
H          1.23517        0.69824       -4.60637
H          2.39031       -0.14183       -5.66659
H          4.58772        2.33709       -3.28006
H          5.86793        2.03666       -4.44546
H          6.13384        2.87854       -1.48727
H          6.51373        3.84840       -2.90923
H          8.10210        1.47149       -1.78089
H          8.56657        3.17771       -1.82545
H         10.28169        0.43709       -7.18474
H          8.07129       -1.19038       -6.12058
H          9.73827       -1.59707       -5.61731
H          8.62377       -1.42600       -8.48179
H          9.27973       -2.85701       -7.63403
H         10.25258       -1.01578      -11.27518
H          9.56127       -2.61713      -10.91580
H         11.05598       -2.48801      -11.85485
H         12.87681       -0.07885       -9.82273
H         13.74706       -1.52436      -10.36929
H         13.66686       -1.14892       -8.63648
H         10.95546       -4.50795       -8.85846
H         12.44989       -3.98682       -8.04140
H         12.47010       -4.40979       -9.76566
H          7.98632        0.22347       -4.11586
H         11.54521        2.52065       -6.74769
H         11.08658        4.02780       -5.91057
H          9.51561        2.72993       -8.23496
H         10.51867        4.17649       -8.30093
H          7.94935        3.81733       -6.63658
H          8.06856        4.72295       -8.14305
H          9.44733        6.31265       -6.95692
H          7.57776        5.25260       -4.96197
H          7.14153        6.54967       -6.09083
H         10.02689        5.75874       -3.80664
H         11.03418        7.39778       -2.21388
H         10.11263        9.71956       -2.09619
H          8.20946       10.37300       -3.54923
H          6.77941        9.70236       -5.15584
