92

C          0.33185        0.26472       -0.11436
C          1.86244        0.28319       -0.14771
C          2.49690       -0.72315        0.81792
C          4.02876       -0.72750        0.80196
C          4.63668       -1.74550        1.77155
C          6.16799       -1.77641        1.77356
C          6.74597       -2.81184        2.74309
C          8.27621       -2.86726        2.75903
C          8.83434       -3.91748        3.72423
C         10.36379       -3.98827        3.74170
C         10.91698       -5.04624        4.70095
C         12.44631       -5.11975        4.71054
C         13.00802       -6.15452        5.68981
C         14.53822       -6.20702        5.70056
C         15.11777       -7.16293        6.74679
C         16.64816       -7.19789        6.74513
C         17.25228       -8.06409        7.85336
C         18.78266       -8.11840        7.79083
C         19.46329       -8.98824        8.85474
C         19.22222      -10.50125        8.75746
N         19.55115      -11.10452        7.43968
C         20.78149      -11.40855        6.98642
N         21.95590      -11.20696        7.63538
C         22.29598      -10.77589        8.96404
C         22.03389      -11.58038       10.07417
C         22.45287      -11.11802       11.32613
N         23.11173       -9.96576       11.51050
C         23.38543       -9.22657       10.42704
C         23.00024       -9.58243        9.13059
N         20.87535      -11.92048        5.73232
C         18.43941      -11.25571        6.48714
O         18.31535      -12.62117        6.13868
C         17.04929      -12.96815        5.51511
C         16.84038      -12.38731        4.11927
C         17.93770      -12.74378        3.11326
H         -0.09750        0.99444       -0.81476
H         -0.04801        0.50538        0.88993
H         -0.06102       -0.72671       -0.38547
H          2.22536        1.29687        0.09310
H          2.21245        0.07372       -1.17285
H          2.12894       -1.73668        0.57790
H          2.14507       -0.51264        1.84362
H          4.40158        0.28247        1.04810
H          4.38434       -0.93877       -0.22209
H          4.25528       -2.75226        1.52484
H          4.27738       -1.53191        2.79382
H          6.55608       -0.77514        2.03114
H          6.53231       -1.98744        0.75255
H          6.34989       -3.81005        2.48504
H          6.37942       -2.59890        3.76290
H          8.67690       -1.87377        3.02716
H          8.64565       -3.07574        1.73934
H          8.42707       -4.90888        3.45769
H          8.46736       -3.70671        4.74429
H         10.77256       -2.99956        4.01524
H         10.73147       -4.19352        2.72073
H         10.50409       -6.03485        4.43292
H         10.55577       -4.83652        5.72323
H         12.85639       -4.12580        4.96214
H         12.80800       -5.34453        3.69154
H         12.60612       -7.15316        5.44291
H         12.64472       -5.92656        6.70729
H         14.93361       -5.19290        5.88551
H         14.90296       -6.49245        4.69782
H         14.72505       -8.18174        6.57667
H         14.75985       -6.86589        7.74785
H         17.03697       -6.16966        6.84192
H         17.00472       -7.55924        5.76345
H         16.81601       -9.07734        7.79118
H         16.94295       -7.67492        8.83810
H         19.17335       -7.09431        7.89742
H         19.10543       -8.43938        6.78382
H         19.12210       -8.69131        9.86022
H         20.54482       -8.79663        8.84031
H         18.16505      -10.74185        8.92260
H         19.77983      -11.02445        9.54032
H         22.77062      -11.42266        7.06631
H         21.53515      -12.54432        9.96779
H         22.25730      -11.71219       12.22228
H         23.93326       -8.29678       10.59982
H         23.23417       -8.94269        8.27877
H         20.05618      -12.44473        5.40535
H         21.77515      -12.26297        5.41666
H         18.64104      -10.62622        5.60056
H         17.52887      -10.89056        6.98189
H         16.23490      -12.66328        6.19502
H         17.07484      -14.06551        5.48096
H         16.70638      -11.29447        4.17193
H         15.87251      -12.78099        3.76935
H         18.90122      -12.27747        3.36810
H         17.67329      -12.39337        2.10774
H         18.09369      -13.83073        3.05617
