90

C          0.42760       -0.34738        0.15763
C          1.95283       -0.30135        0.03600
C          2.63914       -1.56795        0.55896
C          4.16784       -1.52792        0.46751
C          4.84254       -2.79443        1.00358
C          6.37244       -2.76099        0.93040
C          7.03311       -4.02036        1.50001
C          8.56441       -3.98789        1.46221
C          9.20815       -5.21977        2.10609
C         10.74035       -5.18274        2.10861
C         11.35893       -6.36852        2.86156
C         12.87383       -6.30078        2.90293
O         13.36012       -7.38907        3.72997
C         14.75804       -7.39779        3.96739
C         14.97834       -8.34943        5.16911
C         14.65753       -7.70593        6.51279
C         14.91837       -8.60526        7.73513
O         14.28902       -8.08577        8.89576
N         14.01306       -9.55521        4.88821
C         14.86041      -10.64049        4.28270
C         16.30546      -10.07282        4.30200
O         16.22933       -8.94961        5.21397
C         17.33864      -11.04808        4.84501
C         18.73998      -10.44281        4.99315
C         19.66344      -11.29842        5.86681
C         21.01874      -10.63586        6.13189
C         21.86707      -11.36741        7.17677
C         23.18453      -10.65154        7.49026
C         23.99389      -11.30466        8.61414
C         25.29251      -10.56040        8.93933
C         26.07625      -11.16483       10.10882
C         27.37131      -10.41278       10.42417
H         -0.03651        0.57110       -0.22695
H          0.11457       -0.46346        1.20602
H          0.00700       -1.19312       -0.40671
H          2.34048        0.57387        0.58454
H          2.23509       -0.14465       -1.01886
H          2.26251       -2.44286       -0.00023
H          2.34216       -1.73368        1.60990
H          4.54348       -0.65131        1.02441
H          4.46861       -1.36868       -0.58298
H          4.46962       -3.67102        0.44501
H          4.53384       -2.95321        2.05210
H          6.74434       -1.87660        1.47734
H          6.68790       -2.62143       -0.11848
H          6.67214       -4.90551        0.94730
H          6.70063       -4.16146        2.54374
H          8.92180       -3.08056        1.98030
H          8.90695       -3.89400        0.41696
H          8.86393       -6.13094        1.58655
H          8.84855       -5.31058        3.14620
H         11.07924       -4.24078        2.57318
H         11.11238       -5.16301        1.07024
H         11.04729       -7.31644        2.39280
H         10.98040       -6.38327        3.89675
H         13.21660       -5.35063        3.34942
H         13.31649       -6.38781        1.89492
H         15.13388       -6.39805        4.24026
H         15.32092       -7.74304        3.07980
H         13.60667       -7.37782        6.51527
H         15.26720       -6.79351        6.58928
H         15.99859       -8.75722        7.87787
H         14.48480       -9.61345        7.59019
H         14.89881       -7.48603        9.35198
H         13.27890       -9.16484        4.26112
H         13.57605       -9.86141        5.76374
H         14.49999      -10.86508        3.27399
H         14.77299      -11.53561        4.90844
H         16.58695       -9.71168        3.29818
H         17.36418      -11.93288        4.18746
H         16.98109      -11.39734        5.82958
H         18.65211       -9.44467        5.44974
H         19.18851      -10.29008        3.99741
H         19.81126      -12.28988        5.40599
H         19.16146      -11.48551        6.83279
H         20.84834       -9.59989        6.47516
H         21.58188      -10.55083        5.18679
H         22.07408      -12.39664        6.83627
H         21.28045      -11.46954        8.10713
H         22.96721       -9.60447        7.76636
H         23.80014      -10.59863        6.57566
H         24.22677      -12.34889        8.34267
H         23.36971      -11.36211        9.52331
H         25.05910       -9.50502        9.16701
H         25.93561      -10.53774        8.04195
H         26.30636      -12.22019        9.88538
H         25.43186      -11.18071       11.00435
H         28.05296      -10.40970        9.56041
H         27.90716      -10.86933       11.26757
H         27.16968       -9.36362       10.68832
