58

C          3.63116        3.43480       -2.21903
C          4.62156        2.55174       -1.45610
C          5.19934        1.41386       -2.30600
C          6.18701        0.52410       -1.54419
C          6.77234       -0.61036       -2.39197
C          7.75016       -1.49701       -1.61250
C          8.33958       -2.63488       -2.46047
C          9.31330       -3.46291       -1.64144
O          9.83044       -4.62878       -2.40485
C         10.87542       -4.42575       -3.18049
O         11.49641       -3.38670       -3.34875
C         11.28327       -5.70247       -3.92747
N         12.61008       -5.41501       -4.56449
C         12.77524       -5.93840       -5.97299
C         13.24662       -7.38233       -5.78854
C         13.89079       -7.44838       -4.38119
C         13.80711       -6.00389       -3.79702
C         15.03796       -5.11641       -3.99239
C         14.92411       -3.72040       -3.36076
N         16.12425       -2.95409       -3.67268
C         15.35131       -7.97078       -4.40965
O         15.99712       -7.92469       -5.43687
C         15.89364       -8.53657       -3.12184
H          3.24469        4.24467       -1.58557
H          2.76834        2.85253       -2.57538
H          4.10276        3.89740       -3.09867
H          4.12645        2.12480       -0.56749
H          5.44895        3.17171       -1.07124
H          5.69953        1.84071       -3.19344
H          4.37246        0.79376       -2.69523
H          5.68397        0.09541       -0.65986
H          7.00989        1.14654       -1.15130
H          7.28656       -0.18417       -3.27086
H          5.95247       -1.23260       -2.79042
H          7.23604       -1.92223       -0.73368
H          8.56941       -0.87309       -1.21586
H          8.85624       -2.21333       -3.33691
H          7.53199       -3.28419       -2.83358
H          8.83045       -3.93441       -0.77760
H         10.17894       -2.87554       -1.30870
H         10.53953       -5.92710       -4.70304
H         11.34925       -6.56366       -3.25355
H         12.66340       -4.37104       -4.51727
H         13.53739       -5.31331       -6.45398
H         11.83220       -5.81815       -6.51711
H         13.98879       -7.64299       -6.55318
H         12.41178       -8.08909       -5.86278
H         13.31261       -8.11964       -3.72828
H         13.52410       -6.00940       -2.73483
H         15.30982       -5.02023       -5.05450
H         15.88812       -5.63897       -3.52664
H         14.70445       -3.83274       -2.27788
H         14.07048       -3.16362       -3.78131
H         16.93941       -3.31092       -3.17268
H         16.01641       -1.97647       -3.40563
H         15.45399       -9.53481       -2.96170
H         15.60947       -7.92896       -2.25000
H         16.98196       -8.63860       -3.17915
