32

Br         7.79815        0.39783        0.13018
C          6.76547       -1.27531        0.28837
C          5.29143       -1.08442       -0.02940
C          4.98463       -0.47630       -1.39852
N          5.55466       -1.25819       -2.52229
C          6.55865       -0.79938       -3.29814
C          7.01309       -1.54091       -4.36407
C          6.40304       -2.78350       -4.69837
C          5.43821       -3.22318       -3.68999
N          5.04337       -2.47873       -2.68299
N          4.84844       -4.52147       -3.79326
O          3.97626       -4.74229       -2.71988
O          5.89922       -5.50037       -3.76056
N          6.73121       -3.43229       -5.82798
C          5.96395       -4.50990       -6.46956
C          7.86961       -2.96283       -6.62818
H          6.90992       -1.60697        1.32058
H          7.26111       -1.98313       -0.38555
H          4.82452       -0.42876        0.71996
H          4.79800       -2.06648        0.05222
H          5.40226        0.53478       -1.47852
H          3.90038       -0.42926       -1.56112
H          6.96458        0.17749       -3.03994
H          7.79709       -1.11491       -4.98271
H          3.31091       -5.34617       -3.10066
H          6.26884       -5.45970       -2.85081
H          5.00445       -4.65967       -5.97561
H          6.53815       -5.44595       -6.44802
H          5.78954       -4.21859       -7.51431
H          8.74323       -2.77072       -5.99263
H          7.61654       -2.05162       -7.19243
H          8.13024       -3.75118       -7.34095
