69

C          0.65994       -1.26086        0.12061
O          2.07500       -1.21132        0.25288
C          2.73396       -1.27919       -0.99636
C          4.23170       -1.23614       -0.72437
O          4.89634       -1.28326       -1.98817
C          6.30600       -1.25157       -1.88566
C          6.84574       -1.28379       -3.31471
C          8.38118       -1.30218       -3.43225
C          9.08668       -0.08132       -2.80158
C          8.74794        1.22251       -3.53514
C          9.02865        1.16012       -5.03370
N          8.51358       -0.13433       -5.63280
C          8.85972       -1.42593       -4.89212
C          8.31837       -2.58522       -5.73287
C          8.69491       -3.96658       -5.18015
C          8.19013       -5.15222       -6.03044
C          8.86006       -5.19934       -7.41673
C          8.29594       -6.27175       -8.37035
C          8.83742       -6.13690       -9.76540
C          9.58535       -7.01689      -10.45697
C         10.03265       -8.35838       -9.93959
C         10.03429       -6.70878      -11.86159
C          8.39242       -6.45735       -5.24897
N         10.45825        1.18090       -5.39203
N         10.54481        0.95773       -6.81038
N         11.12753        2.36383       -5.00809
H          0.24142       -1.20490        1.13209
H          0.33307       -2.20290       -0.35604
H          0.28107       -0.41141       -0.47667
H          2.44670       -0.42850       -1.64648
H          2.47684       -2.21310       -1.53430
H          4.52838       -2.09569       -0.09541
H          4.49151       -0.30806       -0.18129
H          6.68265       -2.12322       -1.31148
H          6.63070       -0.33928       -1.34528
H          6.40268       -0.42118       -3.84411
H          6.42769       -2.18068       -3.79451
H          8.75237       -2.20247       -2.91782
H         10.17408       -0.25015       -2.82219
H          8.80870        0.02123       -1.74495
H          9.30481        2.06938       -3.11302
H          7.68430        1.47274       -3.40476
H          8.47711        1.96417       -5.56862
H          8.99901       -0.12961       -6.56596
H          7.49604       -0.08290       -5.76691
H          9.95979       -1.45353       -4.89615
H          8.71839       -2.47988       -6.75489
H          7.22042       -2.51189       -5.81881
H          8.28536       -4.07507       -4.16294
H          9.79281       -4.03638       -5.08130
H          7.10306       -5.01273       -6.18444
H          9.94486       -5.36298       -7.29026
H          8.75543       -4.22213       -7.91827
H          7.19555       -6.16514       -8.39795
H          8.49620       -7.27423       -7.96929
H          8.58143       -5.19662      -10.26897
H          9.71811       -8.56045       -8.90933
H         11.13081       -8.43960       -9.98186
H          9.64140       -9.16764      -10.57718
H          9.68649       -5.72323      -12.19684
H          9.65727       -7.46489      -12.56923
H         11.13341       -6.73473      -11.94017
H          9.46324       -6.65222       -5.08217
H          7.97632       -7.31969       -5.78382
H          7.90200       -6.41262       -4.26613
H         11.47098        0.56954       -6.99760
H         10.49377        1.85561       -7.31054
H         11.60927        2.22379       -4.12149
H         10.50983        3.18167       -4.94993
