67

C          6.52985        1.58744       -2.63592
O          7.10056        0.29145       -2.82642
C          6.23057       -0.74343       -2.44697
C          6.96643       -2.09021       -2.60066
O          7.45748       -2.30342       -3.93689
C          6.44667       -2.28313       -4.90431
N          5.36148       -3.20755       -4.51958
C          5.26612       -3.70476       -3.27903
N          4.43183       -4.72348       -3.02227
C          3.56245       -5.31789       -4.04479
C          2.67695       -6.41396       -3.46268
C          1.73976       -7.01096       -4.52020
S          2.55591       -8.04094       -5.78095
C          2.66238       -6.95397       -7.21117
S          2.29482       -5.32684       -7.19138
N          3.06036       -7.63330       -8.32548
C          3.08177       -7.01405       -9.63450
C          4.28856       -6.95160      -10.33756
C          4.30909       -6.40618      -11.62385
C          3.13005       -5.93227      -12.20476
C          1.92519       -6.00758      -11.49792
C          1.89541       -6.54880      -10.21229
C          3.42166       -9.03602       -8.28627
C          2.56633       -9.97871       -8.86968
C          2.92090      -11.32780       -8.85753
C          4.12300      -11.73480       -8.26947
C          4.97787      -10.78883       -7.69810
C          4.63385       -9.43496       -7.70983
N          6.01493       -3.17268       -2.28321
C          8.19832       -2.16120       -1.68466
C          8.76733       -3.56702       -1.47971
C         10.16330       -3.56202       -0.86083
O         10.72065       -4.85992       -0.76984
O          7.86602       -4.36682       -0.65097
H          7.28046        2.31330       -2.96641
H          6.29085        1.76562       -1.57311
H          5.61155        1.71188       -3.23619
H          5.29903       -0.73690       -3.05077
H          5.91595       -0.65643       -1.38768
H          6.89566       -2.63711       -5.84187
H          6.03303       -1.27120       -5.05348
H          4.74468       -3.56787       -5.24435
H          4.26676       -4.95371       -2.04713
H          4.18432       -5.73894       -4.85118
H          2.92467       -4.54036       -4.49421
H          2.05193       -5.99392       -2.65599
H          3.30037       -7.20594       -3.01812
H          1.18267       -6.22654       -5.05510
H          1.02542       -7.69274       -4.03912
H          5.20273       -7.33482       -9.88292
H          5.24975       -6.35730      -12.17326
H          3.14818       -5.50941      -13.20956
H          1.00137       -5.64635      -11.95113
H          0.96119       -6.60609       -9.65452
H          1.63350       -9.65026       -9.32875
H          2.25613      -12.06403       -9.31034
H          4.39489      -12.79076       -8.26238
H          5.92036      -11.10309       -7.24861
H          5.29671       -8.68748       -7.27272
H          6.34845       -3.81527       -1.54566
H          7.94350       -1.72230       -0.70703
H          8.94970       -1.50140       -2.13909
H          8.81077       -4.11345       -2.43340
H         10.12318       -3.06182        0.13089
H         10.84415       -2.97511       -1.49465
H         10.10137       -5.42596       -0.28007
H          7.91571       -4.01710        0.25713
