67

C          0.62478       -0.41476        0.41990
C          2.15140       -0.35793        0.33597
C          2.69747       -0.74613       -1.04168
C          4.22516       -0.68883       -1.13013
C          4.77984       -1.07352       -2.50494
C          6.30824       -1.01077       -2.57901
C          6.87806       -1.40246       -3.94564
C          8.40611       -1.31723       -4.00411
C          8.99470       -1.71875       -5.36038
C         10.52182       -1.59602       -5.40436
C         11.11616       -2.02752       -6.75012
C         12.64083       -1.72669       -6.89196
C         13.39914       -2.50353       -5.87830
N         14.09120       -3.47147       -6.38427
C         13.96636       -3.53627       -7.86693
C         13.34584       -2.17026       -8.21834
C         12.48920       -2.17433       -9.48351
C         13.30788       -2.58033      -10.70732
O         14.43757       -3.03632      -10.64143
O         12.60999       -2.38877      -11.83237
C         13.26510       -2.76978      -13.09437
C         14.07848       -1.62118      -13.65781
C         14.88605       -4.45506       -5.63384
C         16.39098       -4.18954       -5.77943
C         17.20071       -5.28137       -5.08834
F         16.87995       -5.37184       -3.77039
F         16.96043       -6.49519       -5.64860
F         18.51956       -5.02808       -5.18196
H          0.26541       -0.13250        1.41884
H          0.25146       -1.42704        0.20527
H          0.16076        0.26909       -0.30625
H          2.58825       -1.02459        1.09859
H          2.49770        0.65844        0.58859
H          2.26145       -0.07995       -1.80698
H          2.35384       -1.76438       -1.29593
H          4.65885       -1.35561       -0.36407
H          4.56637        0.32929       -0.87255
H          4.34938       -0.40696       -3.27265
H          4.44227       -2.09233       -2.76386
H          6.73705       -1.67071       -1.80444
H          6.64255        0.01047       -2.32525
H          6.44607       -0.75001       -4.72412
H          6.55788       -2.42881       -4.19601
H          8.83655       -1.96087       -3.21669
H          8.72174       -0.28753       -3.76142
H          8.55787       -1.08833       -6.15378
H          8.70143       -2.75623       -5.59635
H         10.94784       -2.19981       -4.58361
H         10.80681       -0.54989       -5.19696
H         10.61159       -1.48445       -7.56346
H         10.92747       -3.09954       -6.92375
H         12.77286       -0.64815       -6.70824
H         13.37169       -2.35707       -4.79615
H         13.32229       -4.39765       -8.10745
H         14.94273       -3.70253       -8.33185
H         14.18450       -1.47597       -8.38331
H         12.05390       -1.18140       -9.66693
H         11.63923       -2.87010       -9.40104
H         12.42564       -3.03681      -13.74682
H         13.88400       -3.65540      -12.90394
H         13.45700       -0.72866      -13.80425
H         14.48452       -1.91596      -14.63515
H         14.92278       -1.37127      -13.00317
H         14.62987       -5.44870       -6.02840
H         14.58094       -4.40928       -4.58124
H         16.66665       -3.22889       -5.32427
H         16.70032       -4.17707       -6.83302
