57

C          2.60305       -5.45070        3.26899
O          3.88793       -5.06514        2.75213
C          4.04100       -3.67489        2.63451
P          5.77446       -3.39443        2.09723
C          6.09763       -4.31255        0.56769
C          7.55203       -4.26680        0.05155
C          8.63424       -4.57597        1.09835
N          8.23940       -5.69571        1.96231
C          6.09665       -1.61311        1.95939
C          6.09545       -0.81125        3.27452
C          7.17287       -1.18827        4.30803
S          8.80082       -1.64392        3.64281
C          9.43898       -0.04183        3.09008
S          8.76362        1.39783        3.53774
N         10.52804       -0.17677        2.27516
C         11.18745       -1.43542        2.03485
C         11.28079       -1.91544        0.72104
C         11.96331       -3.10470        0.46730
C         12.54687       -3.82036        1.51861
C         12.45996       -3.33283        2.82517
C         11.79344       -2.13352        3.08766
C         11.09773        0.96914        1.59760
C         12.39314        1.37501        1.92325
C         12.97141        2.44148        1.23155
C         12.25900        3.09170        0.22124
C         10.96382        2.67396       -0.10140
C         10.37878        1.61029        0.58422
H          2.61220       -6.54433        3.31768
H          1.79224       -5.11660        2.60177
H          2.44651       -5.03784        4.27894
H          3.89055       -3.13780        3.59265
H          3.36322       -3.22045        1.88232
H          6.58607       -3.96706        3.09938
H          5.39360       -3.93475       -0.18945
H          5.79550       -5.34032        0.81783
H          7.76757       -3.28932       -0.40429
H          7.60416       -4.99972       -0.76884
H          8.79226       -3.69841        1.74595
H          9.59015       -4.72435        0.56682
H          8.91438       -5.81204        2.71860
H          8.23733       -6.57769        1.44622
H          5.34488       -1.21694        1.25884
H          7.07933       -1.52842        1.46998
H          5.10971       -0.85975        3.76274
H          6.25238        0.23953        2.99368
H          6.89603       -2.07396        4.90065
H          7.31587       -0.34765        5.00194
H         10.83879       -1.34116       -0.09358
H         12.04927       -3.47020       -0.55667
H         13.08880       -4.74465        1.31644
H         12.93801       -3.87173        3.64377
H         11.75653       -1.72902        4.09921
H         12.94031        0.86050        2.71356
H         13.98065        2.76515        1.48651
H         12.71246        3.92421       -0.31688
H         10.40618        3.17779       -0.89121
H          9.36669        1.28260        0.34651
