93

C          0.85861       -0.24404        0.33229
C          2.38470       -0.18788        0.22839
C          2.89464       -0.19165       -1.21727
C          4.42059       -0.13154       -1.33462
C          4.92494       -0.12764       -2.78152
C          6.45082       -0.06971       -2.90166
C          6.95246       -0.04837       -4.34924
C          8.47894       -0.01484       -4.46757
C          8.98541        0.03404       -5.91285
C         10.51319        0.05206       -6.01881
C         11.03498        0.11515       -7.45801
C         12.56438        0.13375       -7.54143
C         13.10511        0.20871       -8.97312
C         14.63635        0.22608       -9.02740
C         15.19060        0.28235      -10.45971
C         16.71318        0.28892      -10.43041
N         17.38962        0.21122      -11.78913
C         17.12782        1.41717      -12.65704
C         17.89442        1.34861      -13.99650
C         17.34979        0.35866      -15.05465
C         15.83106        0.39930      -15.32958
C         15.10178       -0.83454      -14.83804
F         15.34427       -1.02405      -13.43678
N         19.32607        1.09098      -13.80351
C         19.60367       -0.07061      -12.95582
C         18.87312       -0.01850      -11.60849
C         21.11157       -0.23501      -12.75325
C         21.47333       -1.61369      -12.17438
O         20.60544       -2.39752      -11.77553
N         22.79983       -1.88591      -12.12307
C         23.33051       -3.15916      -11.62792
C         23.48285       -4.23037      -12.71608
C         24.47575       -3.87041      -13.82748
C         24.64010       -4.98420      -14.86493
H          0.52417       -0.23892        1.37892
H          0.45898       -1.15419       -0.13954
H          0.39251        0.61758       -0.16901
H          2.82344       -1.04326        0.76988
H          2.75652        0.71538        0.74138
H          2.45306        0.66305       -1.76010
H          2.52422       -1.09658       -1.73088
H          4.86257       -0.98874       -0.79644
H          4.79123        0.77118       -0.81745
H          4.48416        0.73103       -3.31830
H          4.55286       -1.02892       -3.30007
H          6.89143       -0.93482       -2.37535
H          6.82493        0.82529       -2.37378
H          6.52609        0.82752       -4.86940
H          6.56455       -0.93362       -4.88333
H          8.90281       -0.90105       -3.96320
H          8.86855        0.85931       -3.91650
H          8.57271        0.92707       -6.41429
H          8.58998       -0.83405       -6.46911
H         10.92252       -0.84555       -5.52290
H         10.90688        0.91421       -5.45232
H         10.62963        1.01376       -7.95548
H         10.64705       -0.74726       -8.02776
H         12.96632       -0.76877       -7.04818
H         12.94996        0.99089       -6.96189
H         12.70926        1.11188       -9.46966
H         12.72810       -0.65001       -9.55522
H         15.02893       -0.67269       -8.52155
H         15.01259        1.08965       -8.45205
H         14.80266        1.18087      -10.96423
H         14.82910       -0.58665      -11.03117
H         17.09059       -0.57942       -9.87174
H         17.10834        1.19526       -9.94863
H         16.97701       -0.59686      -12.28741
H         17.46323        2.28952      -12.07843
H         16.04398        1.48736      -12.79753
H         17.80227        2.36052      -14.42214
H         17.63684       -0.66902      -14.78355
H         17.91101        0.57972      -15.97072
H         15.64748        0.45564      -16.41328
H         15.36253        1.30306      -14.90876
H         15.46341       -1.74984      -15.32820
H         14.01227       -0.75985      -14.95041
H         19.80350        1.92248      -13.45056
H         19.25425       -0.97242      -13.48550
H         19.23984        0.81535      -10.99003
H         19.00372       -0.96602      -11.07155
H         21.50529        0.55440      -12.08951
H         21.59959       -0.09747      -13.73017
H         23.44838       -1.21769      -12.52506
H         22.64199       -3.50883      -10.84815
H         24.30082       -2.94768      -11.15441
H         22.49043       -4.44085      -13.14668
H         23.80643       -5.15994      -12.21961
H         25.45653       -3.63713      -13.37839
H         24.14466       -2.94930      -14.33756
H         25.01521       -5.90803      -14.40103
H         25.34901       -4.69692      -15.65284
H         23.68213       -5.22373      -15.34930
