66

C          0.79655       -0.01918        0.20089
C          2.32299        0.09123        0.19322
C          2.99747       -0.84455        1.20222
C          4.52639       -0.74081        1.19978
C          5.18676       -1.66841        2.22980
C          6.69490       -1.55168        2.18591
O          7.25140       -2.44561        3.22776
C          8.56880       -2.58763        3.24081
O          9.38091       -2.07072        2.50108
C          8.97183       -3.56808        4.37023
N         10.42336       -3.60119        4.48742
C         11.23769       -4.26093        3.70889
C         10.78000       -5.18746        2.63849
C         11.81353       -6.19516        2.11302
C         11.18212       -7.06816        1.02091
C         12.17086       -8.06670        0.41622
S         11.33318       -9.05724       -0.84130
O         10.41978       -9.97419       -0.18999
O         10.89801       -8.16590       -1.88639
O         12.57884       -9.91478       -1.42745
C         12.65536       -3.92033        4.01012
C         12.61004       -2.86048        5.14311
C         11.09847       -2.65168        5.40173
C         13.38614       -3.29596        6.39146
C         13.50881       -2.19580        7.44187
O         14.15446       -2.77012        8.56283
C         14.36540       -1.85880        9.62268
C         14.97375       -2.62917       10.79146
F         14.15280       -3.61607       11.22392
F         16.15810       -3.19372       10.46340
F         15.18544       -1.77807       11.82585
H          0.34248        0.66561       -0.52762
H          0.38244        0.22631        1.18991
H          0.46788       -1.03794       -0.05218
H          2.61985        1.13143        0.40931
H          2.70518       -0.12839       -0.81794
H          2.70232       -1.88669        0.98868
H          2.61825       -0.62373        2.21523
H          4.82247        0.30303        1.40167
H          4.90724       -0.97669        0.19117
H          4.89610       -2.71316        2.03567
H          4.83007       -1.41919        3.24172
H          7.04679       -0.53435        2.40979
H          7.11812       -1.86111        1.22025
H          8.57555       -4.56671        4.14389
H          8.53954       -3.24646        5.32531
H         10.44404       -4.53743        1.80685
H          9.87126       -5.71684        2.97057
H         12.17862       -6.82772        2.93795
H         12.68714       -5.66299        1.70504
H         10.78788       -6.42739        0.21672
H         10.32343       -7.61788        1.43849
H         12.56721       -8.77262        1.15943
H         13.00862       -7.57047       -0.09357
H         12.44492      -10.84515       -1.16115
H         13.14042       -3.55335        3.09145
H         13.20933       -4.83127        4.29232
H         13.03542       -1.92108        4.76387
H         10.74710       -1.63905        5.15848
H         10.79365       -2.88741        6.43252
H         14.40038       -3.61006        6.10241
H         12.90312       -4.17455        6.85165
H         12.51372       -1.79951        7.73588
H         14.09349       -1.34323        7.04116
H         13.41951       -1.40688        9.97368
H         15.06570       -1.05114        9.34277
