70

C          1.36175       -0.78321       -0.45911
C          2.85269       -0.44148       -0.49564
C          3.19021        0.85174        0.25455
C          4.68146        1.20116        0.22915
C          5.01767        2.47367        1.01535
C          6.51199        2.81355        0.99342
C          6.84279        4.05036        1.82815
N          8.28618        4.31677        1.79031
C          8.92014        5.28258        2.48294
N         10.24968        5.44956        2.33590
C         11.02400        6.39654        3.14956
C         10.15071        7.60631        3.49860
C          8.87444        7.07682        4.19140
N          8.23389        6.08725        3.29961
C          7.88887        8.20378        4.63117
C          6.41385        7.97018        4.27591
O          5.98664        6.64326        4.66697
C          8.12689        8.57767        6.11281
C          7.68196        7.55757        7.16539
C          9.87181        8.49970        2.26614
C         10.28868        9.95729        2.48710
O          9.99675       10.70556        1.32796
Si         9.60918       12.35063        1.33753
C         10.98192       13.32607        2.17307
C          9.42384       12.79124       -0.47080
C          7.99065       12.59028        2.27447
H          1.15121       -1.71818       -0.99540
H          0.75895        0.01026       -0.92481
H          1.00634       -0.90680        0.57436
H          3.18654       -0.35131       -1.54279
H          3.43316       -1.27262       -0.06073
H          2.85539        0.75973        1.30287
H          2.61050        1.68612       -0.17759
H          5.01396        1.31631       -0.81712
H          5.26028        0.35691        0.64262
H          4.68767        2.34928        2.06104
H          4.44147        3.32145        0.60721
H          6.83709        2.98116       -0.04760
H          7.08928        1.95595        1.37814
H          6.53147        3.88463        2.87335
H          6.29381        4.92709        1.44515
H          8.83975        3.73952        1.16607
H         10.74222        4.84180        1.69223
H         11.89447        6.70835        2.55821
H         11.39307        5.89513        4.05875
H         10.70486        8.18669        4.25343
H          9.18411        6.53812        5.10298
H          7.25917        5.86421        3.53505
H          8.14272        9.10132        4.04460
H          6.26698        8.09699        3.18904
H          5.80518        8.73279        4.78744
H          5.01874        6.60366        4.62096
H          7.61658        9.53566        6.29831
H          9.20159        8.79121        6.24135
H          6.59627        7.40235        7.15056
H          7.95875        7.90779        8.16819
H          8.15333        6.57388        7.02466
H          8.80526        8.48095        1.99427
H         10.41106        8.12354        1.38342
H         11.37243       10.00007        2.71269
H          9.76666       10.36007        3.37925
H         11.94591       13.17321        1.66766
H         11.10321       13.04330        3.22902
H         10.76099       14.40313        2.14879
H         10.36657       12.63719       -1.01370
H          9.13667       13.84576       -0.58929
H          8.65081       12.17615       -0.95202
H          8.06315       12.26694        3.32341
H          7.16925       12.03587        1.79854
H          7.70883       13.65327        2.28727
