66

C         11.74830        8.59471        6.57106
C         12.05218        8.29397        5.10126
C         10.79470        8.20762        4.22910
C         11.08559        7.88554        2.76011
C          9.82600        7.77994        1.89395
C         10.12319        7.42192        0.43462
C          8.86545        7.30456       -0.43279
C          9.15030        6.99974       -1.89273
O          9.80194        5.70854       -1.97646
C          9.93903        5.19512       -3.25949
N         10.95037        5.89522       -4.09457
C         12.19277        6.30101       -3.72071
N         12.96616        5.64334       -2.85019
C         12.69657        4.39605       -2.12703
C         13.98346        3.78242       -1.55444
C         14.84256        4.63869       -0.61932
C         14.13459        5.33605        0.58952
Br        13.09533        4.08514        1.67495
F         15.02462        5.97261        1.36550
F         13.28725        6.28600        0.09195
Br        16.33350        3.56487        0.03175
F         15.38501        5.70192       -1.36482
N         12.67338        7.42278       -4.28639
C         14.07149        7.86013       -4.32278
C         14.13670        9.29685       -4.88234
C         13.34735        9.45609       -6.16357
C         12.05366       10.00512       -6.13327
C         11.28899       10.10595       -7.30148
C         11.81228        9.65954       -8.51621
C         13.10148        9.11735       -8.55939
C         13.86088        9.01270       -7.39303
H         12.66778        8.65371        7.16922
H         11.11294        7.81416        7.01536
H         11.21874        9.55264        6.68169
H         12.61047        7.34485        5.02614
H         12.72271        9.07088        4.69598
H         10.24022        9.16037        4.29327
H         10.11847        7.43849        4.64249
H         11.64710        6.93645        2.70148
H         11.75471        8.65798        2.34079
H          9.26986        8.73277        1.93529
H          9.15149        7.01895        2.32381
H         10.67572        6.47037        0.40314
H         10.79664        8.18320        0.00013
H          8.29383        8.24700       -0.39999
H          8.19870        6.52396       -0.03223
H          9.80915        7.77314       -2.33010
H          8.21715        6.96325       -2.48394
H          9.00656        5.26079       -3.84755
H         10.20662        4.13851       -3.14724
H         10.56005        6.43942       -4.85770
H         13.80267        6.13986       -2.55244
H         12.28815        3.65804       -2.82970
H         11.94998        4.57132       -1.33819
H         14.65358        3.47738       -2.37103
H         13.69874        2.86959       -1.01700
H         12.06255        7.92668       -4.93273
H         14.66195        7.17088       -4.94924
H         14.50026        7.85644       -3.30863
H         15.19636        9.54049       -5.04132
H         13.75641        9.99362       -4.12144
H         11.65671       10.39611       -5.19217
H         10.29486       10.55288       -7.26270
H         11.22548        9.74931       -9.43069
H         13.52074        8.78586       -9.50974
H         14.87078        8.59908       -7.44034
