44

C          1.06748        0.15362       -0.45577
C          2.55388        0.24489       -0.10328
C          3.03730       -0.90310        0.79109
C          4.53110       -0.82670        1.12179
C          5.01612       -1.95737        2.03654
C          6.52189       -1.87986        2.32008
C          6.99727       -2.98224        3.24794
O          8.43194       -2.83577        3.41586
C          8.97049       -3.75665        4.31099
N         10.44645       -3.52971        4.31677
N         11.10572       -4.51188        3.70173
C         12.42980       -4.36619        3.62662
C         13.12139       -3.27782        4.13664
C         12.40143       -2.26088        4.78397
C         10.97870       -2.41477        4.86153
C         10.10851       -1.40157        5.54669
C         10.07553       -1.58266        7.08111
N         13.01019       -1.18117        5.31814
H          0.75505        0.98926       -1.09658
H          0.43952        0.17602        0.44748
H          0.83981       -0.77920       -0.99290
H          2.75640        1.20553        0.40037
H          3.15263        0.25803       -1.03010
H          2.82169       -1.86668        0.29640
H          2.45210       -0.90741        1.72764
H          4.75222        0.14527        1.59719
H          5.11283       -0.84388        0.18334
H          4.77811       -2.93075        1.57408
H          4.45534       -1.92502        2.98671
H          6.76964       -0.90425        2.76928
H          7.08528       -1.94682        1.37583
H          6.78664       -3.98285        2.82955
H          6.50715       -2.91367        4.23759
H          8.84770       -4.80384        3.99439
H          8.59355       -3.63037        5.34398
H         12.94330       -5.18326        3.11965
H         14.20551       -3.21879        4.03398
H          9.09929       -1.43612        5.12232
H         10.48527       -0.39855        5.28804
H          9.64029       -2.55198        7.35691
H          9.45797       -0.79480        7.52911
H         11.07538       -1.52830        7.53197
H         14.01133       -1.05969        5.22943
H         12.49269       -0.43204        5.75727
