91

C         14.84553       10.13750       -1.62603
C         14.33856        8.69788       -1.51041
C         15.10522        7.70832       -2.39495
C         14.58912        6.26970       -2.29709
C         15.36466        5.27229       -3.16349
C         14.80711        3.84738       -3.09969
C         15.57017        2.84059       -3.96660
C         14.95308        1.43874       -3.95050
C         15.69599        0.42016       -4.82116
C         15.00649       -0.94677       -4.86686
C         15.71501       -1.97690       -5.75278
C         14.93993       -3.29269       -5.86818
C         15.60568       -4.34028       -6.76711
C         14.75315       -5.60815       -6.90576
C         15.28983       -6.66226       -7.88328
C         16.62327       -7.27472       -7.43703
N         17.01405       -8.42338       -8.27432
C         17.84299       -8.41781       -9.39643
C         18.60204       -7.20850       -9.86072
O         19.45857       -6.72137       -8.84407
C         20.63828       -7.53270       -8.64611
C         21.39377       -7.00435       -7.44053
C         22.70072       -7.76922       -7.19558
C         23.43201       -7.32410       -5.92435
C         24.74562       -8.07659       -5.68392
C         25.45525       -7.65952       -4.39332
N         17.92168       -9.60886       -9.93122
N         17.10548      -10.39384       -9.15553
C         16.55193       -9.69576       -8.14519
N         15.70352      -10.14947       -7.20940
C         15.27653      -11.54690       -7.12171
C         16.37239      -12.52219       -6.58383
C         16.58733      -13.68046       -7.48557
C         16.38023      -14.97897       -7.23808
F         15.93687      -15.42778       -6.07305
F         16.59634      -15.94736       -8.10342
F         17.04262      -13.34843       -8.74382
H         14.27906       10.81842       -0.97584
H         14.75455       10.51114       -2.65698
H         15.90581       10.21223       -1.34156
H         13.26729        8.66239       -1.77233
H         14.40165        8.36740       -0.45969
H         16.17597        7.73316       -2.12489
H         15.05320        8.04363       -3.44609
H         13.52267        6.24677       -2.58368
H         14.62332        5.94008       -1.24356
H         16.42500        5.26676       -2.85507
H         15.35838        5.61806       -4.21237
H         13.74728        3.86082       -3.41037
H         14.80740        3.50013       -2.05135
H         16.62056        2.78647       -3.63024
H         15.60553        3.20895       -5.00714
H         13.90398        1.50451       -4.28942
H         14.90928        1.06836       -2.91115
H         16.73005        0.30285       -4.45220
H         15.78481        0.81548       -5.84849
H         13.97169       -0.81339       -5.22886
H         14.91593       -1.34745       -3.84185
H         16.72694       -2.17327       -5.35727
H         15.86081       -1.55175       -6.76137
H         13.92835       -3.08071       -6.25614
H         14.79132       -3.72001       -4.86081
H         16.60392       -4.58252       -6.36263
H         15.77861       -3.90839       -7.76868
H         13.74487       -5.32334       -7.24450
H         14.61232       -6.06955       -5.91191
H         15.42088       -6.21979       -8.88401
H         14.54320       -7.46522       -7.99820
H         16.57803       -7.62400       -6.39215
H         17.45679       -6.56393       -7.48648
H         17.90623       -6.39204      -10.10671
H         19.14147       -7.48873      -10.78163
H         21.25712       -7.48916       -9.56109
H         20.35012       -8.58955       -8.48999
H         20.74406       -7.07639       -6.55227
H         21.60349       -5.93371       -7.59063
H         23.36760       -7.64262       -8.06535
H         22.49045       -8.85151       -7.13060
H         22.76664       -7.46367       -5.05392
H         23.63479       -6.24049       -5.97824
H         25.41739       -7.91535       -6.54356
H         24.54271       -9.16085       -5.65906
H         25.70320       -6.58786       -4.40117
H         26.39238       -8.21472       -4.25383
H         24.82462       -7.84583       -3.51126
H         17.06115      -11.40022       -9.31739
H         15.40712       -9.49794       -6.49186
H         14.93170      -11.86853       -8.11590
H         14.39573      -11.56393       -6.47115
H         16.10369      -12.88895       -5.58570
H         17.32162      -11.97208       -6.46713
