83

C          2.20923        1.06410      -12.30106
C          3.45301        0.94021      -11.41761
C          4.17051        2.27595      -11.19401
C          5.42163        2.16264      -10.31737
C          6.13844        3.50127      -10.10806
C          7.40477        3.37816       -9.25099
C          8.10548        4.71204       -9.06668
O          9.31313        4.50096       -8.30014
C         10.00384        5.71156       -8.04210
N         11.25471        5.41756       -7.37336
C         11.32825        4.78548       -6.18744
N         10.19088        4.25568       -5.68583
N         12.49549        4.70719       -5.51510
C         12.57167        4.00957       -4.22975
C         12.78471        2.47478       -4.36549
C         12.13802        1.74162       -3.24893
C         12.71867        1.02595       -2.27977
F         14.03317        0.85887       -2.19261
F         12.06920        0.40323       -1.31623
F         10.77229        1.85367       -3.23002
C         13.73173        5.27689       -6.07409
C         13.83913        6.79681       -5.88280
C         14.98928        7.38425       -6.72337
S         14.60212        8.99739       -7.44961
C         13.59158        8.55239       -8.85369
S         13.32639        6.95062       -9.33010
N         13.10072        9.60820       -9.53028
C         13.37997       11.00018       -9.13336
C         12.35083       11.60181       -8.16551
C         12.78138       12.98510       -7.66549
C         11.76660       13.60949       -6.70517
C         12.21756        9.39814      -10.69284
C         10.74244        9.18796      -10.31538
C          9.93191        8.59914      -11.47431
C          8.45143        8.41431      -11.13223
H          1.71994        0.09127      -12.44449
H          2.46310        1.45760      -13.29649
H          1.46856        1.74496      -11.85615
H          4.15758        0.22257      -11.87098
H          3.17154        0.51061      -10.44146
H          3.46754        2.99491      -10.73742
H          4.44903        2.70690      -12.17171
H          6.12311        1.44218      -10.77286
H          5.14589        1.73789       -9.33640
H          5.44217        4.21839       -9.63966
H          6.40194        3.92958      -11.09054
H          8.10852        2.67155       -9.71909
H          7.14887        2.96386       -8.26171
H          7.45563        5.43546       -8.53829
H          8.38021        5.15407      -10.04205
H          9.37579        6.38096       -7.41857
H         10.26770        6.23654       -8.97516
H         12.09093        5.84501       -7.81111
H          9.45750        4.07761       -6.37774
H         10.21980        3.64490       -4.87817
H         11.66641        4.22376       -3.64534
H         13.39730        4.45908       -3.66482
H         13.85341        2.23052       -4.40720
H         12.34242        2.12941       -5.31518
H         13.79634        5.03264       -7.14526
H         14.56698        4.75406       -5.58964
H         13.97047        7.04033       -4.81861
H         12.89257        7.26067       -6.19103
H         15.26370        6.71799       -7.55349
H         15.88824        7.57597       -6.12180
H         13.42739       11.59123      -10.05912
H         14.38766       11.03908       -8.69285
H         12.21846       10.92141       -7.30913
H         11.37216       11.67505       -8.66482
H         12.93717       13.65583       -8.52691
H         13.76087       12.89976       -7.16606
H         10.78846       13.74531       -7.18924
H         12.10284       14.59497       -6.35747
H         11.61437       12.97880       -5.81737
H         12.59160        8.51937      -11.23446
H         12.33170       10.27618      -11.34287
H         10.29740       10.14007       -9.98795
H         10.69714        8.50743       -9.45036
H         10.37542        7.63146      -11.76312
H         10.02501        9.25048      -12.35892
H          8.31788        7.75088      -10.26381
H          7.89891        7.97397      -11.97283
H          7.97285        9.37341      -10.88721
