75

C          9.91137        7.37352        1.00259
C          9.49384        5.91167        0.82132
C         10.18003        4.96031        1.80808
C          9.77253        3.49261        1.64105
C         10.47027        2.55265        2.62988
C         10.07407        1.08062        2.47272
C         10.78265        0.15531        3.46777
C         10.39525       -1.32024        3.32523
C         11.09928       -2.22418        4.34375
C         10.68628       -3.69658        4.21376
C         11.21770       -4.66000        5.31118
C         12.76557       -4.74033        5.32877
C         13.36454       -5.38643        4.07297
C         12.80214       -6.78644        3.79765
N         11.28064       -6.70691        3.82155
C         10.68271       -6.08014        5.05260
C         13.31911       -7.89617        4.74999
C         12.45600       -9.16526        4.72281
O         11.38271       -9.26508        4.11793
O         12.98556      -10.13616        5.44604
C         12.22855      -11.40049        5.57517
C         11.29455      -11.34074        6.76656
C         14.78814       -8.23219        4.42051
C         10.75950       -4.23003        6.72848
C          9.25258       -3.95737        6.87495
C          8.75709       -3.87240        8.31709
C          9.42297       -2.79309        9.23681
Br         9.41331       -1.00207        8.42770
F          8.81711       -2.74001       10.43276
F         10.71853       -3.14832        9.45791
Br         6.81426       -3.57246        8.29835
F          8.99018       -5.08186        8.94950
H          9.40324        8.03023        0.28335
H         10.99493        7.50022        0.85952
H          9.66807        7.73624        2.01243
H          9.71787        5.58879       -0.20957
H          8.39986        5.82365        0.93352
H          9.95728        5.28518        2.83990
H         11.27519        5.04923        1.69550
H          9.99291        3.16685        0.60918
H          8.67845        3.40097        1.75909
H         10.24900        2.88027        3.66092
H         11.56402        2.64884        2.51219
H         10.29528        0.74957        1.44281
H          8.98128        0.98021        2.59455
H         10.56060        0.48880        4.49676
H         11.87531        0.25866        3.34703
H         10.62418       -1.66470        2.30126
H          9.30235       -1.42462        3.44292
H         10.87400       -1.85632        5.35793
H         12.19041       -2.12374        4.22169
H         10.99961       -4.04403        3.21195
H          9.58512       -3.75781        4.20352
H         13.07817       -5.29831        6.22688
H         13.18375       -3.73234        5.44979
H         14.45669       -5.44754        4.16072
H         13.17635       -4.75415        3.19162
H         13.03977       -7.09412        2.76758
H         10.98588       -7.72782        3.75619
H         10.96316       -6.19527        2.99063
H         10.91535       -6.74849        5.89340
H          9.59472       -6.09896        4.90375
H         13.28033       -7.53980        5.79378
H         13.01850      -12.14861        5.70481
H         11.69839      -11.57869        4.63232
H         11.84113      -11.11168        7.69029
H         10.81423      -12.32076        6.89290
H         10.50060      -10.59667        6.62143
H         14.87948       -8.63900        3.40343
H         15.17461       -8.97654        5.12367
H         15.42330       -7.34164        4.49280
H         11.32499       -3.33102        7.00842
H         11.06490       -5.01256        7.44028
H          8.65273       -4.76380        6.42861
H          8.96475       -3.03025        6.36432
