45

C          5.47454        4.07096        0.90346
C          5.57245        2.56268        0.66296
C          6.01380        2.22068       -0.76619
C          6.14348        0.72514       -0.99578
O          6.60460        0.50913       -2.35005
C          6.91631       -0.84725       -2.62415
N          7.56020       -0.92959       -3.92165
C          6.81862       -0.70644       -5.04028
N          7.33852       -0.93081       -6.25364
C          6.72836       -0.50995       -7.52141
C          5.71644       -1.47951       -8.08756
C          5.97135       -2.60251       -8.76594
Br         7.72600       -3.19179       -9.12153
Br         3.87534       -1.01455       -7.81398
N          5.55988       -0.26289       -4.89073
C          9.01945       -1.08470       -4.00251
C          9.75876        0.21786       -4.36409
C         11.16183       -0.03919       -4.91916
C         11.14798       -0.71792       -6.28341
O         10.14011       -1.09749       -6.85565
O         12.34077       -0.90495       -6.88043
H          5.16230        4.28882        1.93286
H          4.74343        4.53842        0.22812
H          6.44299        4.56539        0.73837
H          4.59843        2.09034        0.87138
H          6.28477        2.12177        1.38020
H          6.98522        2.69443       -0.98183
H          5.29353        2.63629       -1.49003
H          5.17778        0.20766       -0.84446
H          6.87605        0.28157       -0.29553
H          6.00249       -1.47195       -2.62608
H          7.61520       -1.25304       -1.87423
H          8.32020       -1.22664       -6.33154
H          7.55923       -0.41784       -8.23450
H          6.27441        0.48425       -7.40495
H          5.19975       -3.25906       -9.16174
H          5.32876        0.23392       -4.03271
H          4.89605       -0.27943       -5.66460
H          9.25372       -1.88532       -4.71839
H          9.34877       -1.45309       -3.02329
H          9.82101        0.86177       -3.47682
H          9.17955        0.77608       -5.11318
H         11.75979       -0.66199       -4.23093
H         11.70982        0.91186       -5.01386
H         13.06730       -0.54943       -6.33688
