74

C          0.93453        0.99380       -0.21573
C          2.44252        0.73214       -0.23582
C          3.10235        0.89111        1.13851
C          4.61334        0.63777        1.12726
C          5.26958        0.80183        2.50185
C          6.78388        0.56467        2.48592
C          7.43473        0.75727        3.86214
C          8.93751        0.54486        3.83117
O          9.46707        0.78050        5.15492
C         10.88811        0.63997        5.25542
C         11.31629        0.95609        6.69489
C         10.51508        0.09612        7.69641
N          9.24146        0.92511        7.77640
C          9.66135        2.37181        7.87972
C         11.03895        2.41863        7.17183
C         11.08969        3.50211        6.09777
O         10.82265        4.72189        6.75873
C         10.81003        5.85563        5.87618
C         10.48848        7.10135        6.68375
C         10.49640        8.37528        5.83089
C         10.18501        9.64237        6.63629
C         10.22403       10.91697        5.79041
C         11.20512       -0.10222        9.05271
C         10.34506       -0.50540       10.27040
C          9.42665       -1.72286       10.16067
C         10.07475       -3.08084        9.73272
Br        11.58762       -3.57733       10.86327
F          9.16240       -4.06414        9.73491
F         10.52462       -2.95770        8.44554
Br         8.48106       -1.96453       11.85213
F          8.45227       -1.46418        9.17846
H          0.49256        0.87137       -1.21386
H          0.71029        2.01645        0.12244
H          0.41659        0.30027        0.46325
H          2.92677        1.41777       -0.95170
H          2.63609       -0.28540       -0.61540
H          2.62082        0.20227        1.85504
H          2.90551        1.90861        1.52055
H          5.09318        1.32687        0.41030
H          4.81118       -0.37952        0.74663
H          4.79804        0.10635        3.21808
H          5.06442        1.81695        2.88489
H          7.25220        1.25191        1.76059
H          6.99168       -0.45480        2.11877
H          6.98602        0.05481        4.58518
H          7.22680        1.77571        4.23100
H          9.42473        1.24507        3.12887
H          9.19345       -0.48404        3.52007
H         11.38984        1.31293        4.53841
H         11.18208       -0.39562        5.00204
H         12.38839        0.72896        6.77304
H         10.22499       -0.87165        7.26983
H          8.59889        0.60252        8.50897
H          8.80787        0.79359        6.83438
H          9.71329        2.64787        8.93819
H          8.90504        2.99523        7.39090
H         11.79725        2.68966        7.91973
H         10.33396        3.31305        5.30818
H         12.08649        3.51830        5.61383
H         10.05642        5.69364        5.08017
H         11.79811        5.94806        5.38558
H         11.22364        7.19163        7.49966
H          9.50272        6.97354        7.16068
H          9.76487        8.27814        5.00959
H         11.48233        8.48752        5.34701
H         10.90465        9.72812        7.46768
H          9.19199        9.53912        7.10543
H         11.21765       11.06888        5.34317
H          9.99428       11.80518        6.39401
H          9.49425       10.87641        4.96834
H         11.72818        0.82004        9.34727
H         11.99245       -0.85048        8.88525
H          9.69195        0.32629       10.57873
H         11.01982       -0.67095       11.11969
