50

Br         4.64555        0.59928       -1.67221
C          4.57347       -0.92462       -0.54838
C          3.74200       -1.94949       -0.76200
C          2.78564       -2.07971       -1.93118
C          1.43781       -1.54087       -1.56780
N          1.10833       -0.29416       -1.72528
C         -0.24107        0.07591       -1.23175
C         -0.88391       -1.34199       -1.05636
C          0.31099       -2.30993       -0.97593
C         -1.73183       -1.65780       -2.28619
O         -1.34607       -2.32892       -3.21444
C         -3.15919       -1.01278       -2.35998
C         -4.35311       -2.00961       -2.11423
C         -4.32315       -2.84051       -0.78298
C         -4.42147       -2.00128        0.53182
O         -3.43483       -1.51488        1.02886
O         -5.64562       -1.86535        1.04089
F         -5.37132       -3.71798       -0.84316
F         -3.16376       -3.55904       -0.75574
F         -5.50734       -1.28645       -2.11834
F         -4.37837       -2.88751       -3.14183
F         -3.26093        0.01307       -1.45421
F         -3.32693       -0.49170       -3.60000
C         -0.17571        0.93639        0.05636
C          0.51753        0.26324        1.21512
C         -0.19311       -0.54315        2.12074
C          0.47324       -1.22779        3.13552
C          1.86605       -1.12308        3.29492
C          2.56232       -0.28404        2.41416
C          1.90140        0.39532        1.39036
C          2.58135       -1.88197        4.38025
Br         3.72608       -3.37345        0.49250
H          5.27281       -0.87492        0.28243
H          2.68775       -3.13446       -2.21694
H          3.19292       -1.52063       -2.78647
H          1.77922        0.40391       -2.06085
H         -0.72947        0.66660       -2.02105
H         -1.51014       -1.36406       -0.15630
H          0.14628       -3.24575       -1.52951
H          0.57312       -2.57822        0.06203
H         -6.29907       -2.38223        0.52855
H         -1.21858        1.18329        0.30341
H          0.31947        1.88746       -0.19485
H         -1.27884       -0.62712        2.04372
H         -0.10186       -1.84421        3.82933
H          3.63861       -0.15183        2.54062
H          2.47076        1.05597        0.73199
H          2.09429       -1.73940        5.35491
H          3.62761       -1.56630        4.47262
H          2.57327       -2.96323        4.17400
