69

C          8.24000       -9.14376       10.00926
C          7.76317       -7.75180        9.58817
C          8.26184       -7.33275        8.20039
C          7.77253       -5.94746        7.76522
C          8.27470       -5.53242        6.37841
C          7.73844       -4.16996        5.92192
C          8.26422       -3.72734        4.56803
O          7.81035       -4.67884        3.57440
C          8.29438       -4.48795        2.29232
N          9.74977       -4.93159        2.19684
C          9.98301       -6.29095        2.40998
C          8.83518       -7.25872        2.48813
C          8.27476       -7.59711        1.09923
O          8.45351       -6.90957        0.10961
O          7.55944       -8.72493        1.16110
C          6.93823       -9.19652       -0.08732
C          7.86230      -10.13615       -0.84690
C          8.23486      -11.41540       -0.08827
C          9.17737      -12.32133       -0.88395
C         11.27237       -6.74589        2.47642
C         12.37730       -5.88052        2.30991
C         12.11427       -4.49535        2.05517
C         10.76052       -4.04047        2.01813
C         10.46292       -2.60914        1.68756
C         10.31074       -2.38818        0.14960
N          9.17431       -3.12906       -0.38504
C         13.22211       -3.62606        1.84293
C         14.51256       -4.11089        1.88878
C         14.76227       -5.47773        2.15266
C         13.71258       -6.34862        2.36138
H          7.86659       -9.41160       11.00651
H          9.33846       -9.19838       10.04220
H          7.89155       -9.91589        9.30722
H          8.09454       -7.00722       10.33109
H          6.66087       -7.72010        9.60101
H          7.93860       -8.08335        7.45685
H          9.36645       -7.35233        8.18964
H          8.08826       -5.19574        8.50916
H          6.66900       -5.93301        7.77124
H          7.98463       -6.30251        5.64504
H          9.37951       -5.50830        6.37955
H          8.01441       -3.39174        6.65214
H          6.63744       -4.18582        5.88793
H          9.37005       -3.70133        4.57661
H          7.89131       -2.72452        4.29465
H          8.22938       -3.46066        1.92689
H          7.73403       -5.12323        1.60113
H          8.01581       -6.88500        3.11847
H          9.18516       -8.18580        2.95854
H          6.66870       -8.31892       -0.68756
H          6.02966       -9.70627        0.25690
H          8.76929       -9.58657       -1.14798
H          7.34395      -10.39690       -1.78532
H          7.31410      -11.96695        0.16481
H          8.70169      -11.14995        0.87379
H          8.73160      -12.62210       -1.84299
H          9.41469      -13.23755       -0.32754
H         10.12704      -11.81283       -1.10758
H         11.44134       -7.81057        2.63761
H         11.28212       -1.98152        2.05470
H          9.56039       -2.24865        2.18995
H         11.27351       -2.62770       -0.33658
H         10.13397       -1.31438        0.00096
H          9.42449       -4.06583       -0.70173
H          8.74806       -2.64559       -1.17204
H         13.06762       -2.56874        1.64015
H         15.34943       -3.43239        1.72491
H         15.78969       -5.84057        2.19032
H         13.89594       -7.40486        2.56188
