56

C          2.46273       -1.89150       -0.51616
C          2.94607       -0.72475       -1.38094
N          2.06206        0.45393       -1.31669
C          1.07031        0.69067       -2.20247
S          0.11845        2.08450       -2.16599
S          0.88814       -0.60341       -3.41865
C         -0.41726       -0.02208       -4.54603
C         -1.81255       -0.07103       -3.92697
C         -2.94717        0.26259       -4.91008
C         -4.27215        0.83625       -4.31646
C         -4.34692        2.37791       -4.35991
C         -3.52011        3.03501       -3.25101
C         -3.95804        2.53469       -1.88229
N         -3.87034        1.02370       -1.79699
C         -4.64747        0.33928       -2.90807
C         -4.20898        0.50833       -0.41431
C         -2.90125        0.22109        0.38822
N         -2.15562       -0.73481       -0.43871
N         -2.14787        1.45633        0.55953
N         -3.19312       -0.27794        1.72597
C          2.35847        1.40709       -0.22961
C          3.40072        2.45357       -0.62532
H          3.17446       -2.72472       -0.58495
H          1.48280       -2.25549       -0.85208
H          2.38696       -1.60420        0.54164
H          3.05073       -1.02985       -2.43129
H          3.94148       -0.39197       -1.05451
H         -0.30811       -0.70129       -5.40578
H         -0.16352        0.99680       -4.87211
H         -1.74185        0.67092       -3.12080
H         -1.97174       -1.05282       -3.45840
H         -3.18515       -0.64436       -5.48544
H         -2.58591        0.99365       -5.65016
H         -5.08483        0.45973       -4.95733
H         -5.39982        2.69079       -4.25743
H         -4.01503        2.72950       -5.34614
H         -3.65279        4.12602       -3.26382
H         -2.44193        2.85507       -3.38746
H         -5.01123        2.78464       -1.68170
H         -3.34228        2.92343       -1.06300
H         -2.87935        0.72877       -1.92432
H         -5.70906        0.53734       -2.70133
H         -4.46758       -0.73733       -2.78714
H         -4.78766       -0.41742       -0.53433
H         -4.82451        1.25590        0.09746
H         -1.20335       -0.83607       -0.08425
H         -2.58353       -1.66400       -0.43558
H         -1.47834        1.60686       -0.20827
H         -1.60434        1.38534        1.42152
H         -3.73643       -1.14110        1.71228
H         -3.70131        0.41175        2.28346
H          2.70774        0.81059        0.62558
H          1.41638        1.89393        0.05041
H          4.34854        1.99014       -0.93071
H          3.60892        3.10698        0.23225
H          3.03262        3.07540       -1.45041
