49

C          4.63865        5.13460       -4.14494
O          4.82788        3.82760       -3.61316
C          3.81085        3.44958       -2.70826
C          4.19978        2.14311       -2.03701
O          5.37212        2.20193       -1.20379
C          5.24428        3.06085       -0.07459
C          6.32396        2.68290        0.93869
C          7.76846        3.06951        0.57745
N          8.75338        2.39172        1.56008
C          8.82808        0.88799        1.35284
C          9.11943        0.54793       -0.12066
N          8.31008        1.26836       -1.09147
C          8.31791        2.68924       -0.81783
C          7.77370        3.61390       -1.93887
O          7.38683        4.72782       -1.62957
C          7.89882        3.12104       -3.34886
C          8.57831        2.74784        3.01112
C          8.90435        4.22813        3.21623
C          8.98274        4.55858        4.72308
F          9.84134        3.75272        5.38091
F          9.39717        5.83558        4.88317
F          7.75816        4.42900        5.28569
O         10.14417        4.43639        2.56130
H          5.47467        5.32631       -4.82760
H          4.64653        5.89585       -3.34427
H          3.69084        5.21105       -4.70678
H          2.84504        3.28625       -3.22912
H          3.63578        4.24875       -1.95986
H          4.43577        1.38995       -2.80100
H          3.34391        1.77961       -1.43868
H          4.25951        2.91123        0.40475
H          5.32853        4.12144       -0.36483
H          6.23495        1.59929        1.10555
H          6.05787        3.17410        1.88622
H          7.91318        4.15089        0.70273
H          9.67628        2.79318        1.31647
H          7.87327        0.46956        1.69300
H          9.62432        0.51803        2.01275
H          8.98950       -0.53486       -0.25064
H         10.18229        0.76405       -0.33036
H          7.35396        0.91653       -1.17327
H          9.39150        2.98914       -0.80838
H          8.85182        2.59607       -3.50187
H          7.79164        3.96275       -4.03929
H          7.09555        2.39920       -3.55301
H          9.29731        2.13517        3.57053
H          7.56461        2.49357        3.33527
H          8.11042        4.87967        2.80870
H         10.41109        5.36823        2.63734
