58

C          3.08608       -0.29387       -1.59253
C          2.68732       -0.39603       -0.32189
C          3.58722       -0.43480        0.88781
N          5.02003       -0.26564        0.60818
C          5.56925        0.97371        0.52552
N          6.88915        1.10165        0.73115
N          4.79436        2.02888        0.25339
C          5.20438        3.43980        0.27531
C          3.96097        4.33002        0.27359
C          4.27746        5.81346        0.05493
N          3.03666        6.57343        0.00876
C          3.20133        7.96314       -0.46163
C          1.88869        8.70549       -0.42359
C          1.07798        8.81120       -1.56019
C         -0.14163        9.48978       -1.53167
C         -0.56844       10.08328       -0.34119
C          0.21711        9.99010        0.80841
C          1.43352        9.30031        0.76822
O          2.22853        9.16250        1.88586
C          5.88179       -1.43312        0.52681
O          6.65663       -1.51161        1.71137
C          7.46822       -2.71080        1.78031
C          8.19631       -2.72226        3.11288
C          9.08366       -3.96277        3.28910
C          9.78322       -3.99667        4.65035
H          2.36556       -0.27814       -2.40873
H          4.14151       -0.23923       -1.86965
H          1.62107       -0.46561       -0.08708
H          3.47319       -1.39546        1.41333
H          3.27811        0.33552        1.61387
H          7.35974        0.35724        1.24933
H          7.36768        1.97229        0.54047
H          3.89087        1.82426       -0.17362
H          5.82994        3.66202       -0.60771
H          5.81193        3.61640        1.17677
H          3.41792        4.19556        1.22316
H          3.27913        4.01369       -0.53297
H          4.78048        5.93552       -0.91978
H          5.00010        6.17066        0.82326
H          2.60577        6.59587        0.93555
H          3.56035        7.91934       -1.50164
H          3.95974        8.51810        0.12550
H          1.42151        8.34968       -2.48840
H         -0.75183        9.56080       -2.43189
H         -1.51537       10.62265       -0.30303
H         -0.11292       10.45406        1.74194
H          1.83592        9.67530        2.61088
H          6.53384       -1.34990       -0.36397
H          5.23571       -2.31837        0.40660
H          8.17826       -2.72347        0.93225
H          6.80746       -3.59166        1.68223
H          7.45086       -2.67562        3.92281
H          8.81082       -1.81049        3.19657
H          9.83739       -3.99288        2.48501
H          8.47120       -4.87116        3.16703
H         10.43048       -3.11880        4.79105
H         10.41189       -4.89098        4.74992
H          9.05512       -4.00950        5.47412
