92

C         11.63137       -7.95202        5.52063
C         11.47427       -6.64527        4.73905
C         12.25921       -5.47395        5.34112
C         12.10046       -4.16715        4.55783
C         12.89425       -2.98884        5.13313
C         12.71589       -1.69743        4.32827
C         13.52577       -0.50382        4.84709
C         13.30696        0.76325        4.01348
C         14.12745        1.97964        4.45809
C         13.84436        3.21805        3.60012
C         14.65601        4.46429        3.97454
C         14.29714        5.67066        3.09870
C         15.05763        6.95980        3.43725
C         14.60964        8.13014        2.55038
C         15.13880        9.51893        2.96484
P         16.92980        9.77285        2.80471
C         17.43159        9.54696        1.06650
C         18.92458        9.85771        0.91816
O         19.68626        9.82467        1.86919
O         19.21942       10.17807       -0.33625
C         20.60490       10.61927       -0.61130
C         21.54699        9.47623       -0.94984
C         22.89870       10.05058       -1.40421
C         23.95381        8.99368       -1.74934
C         25.24675        9.62244       -2.28186
C         26.34818        8.61449       -2.62330
C         27.60062        9.27097       -3.21648
C         28.71441        8.27574       -3.55021
C         17.43353       11.43172        3.37753
C         16.94214       11.89122        4.76616
C         17.32053       11.02402        5.96817
C         18.84528       10.76741        6.21612
Br        19.88276       12.42083        6.30835
F         19.02776       10.05248        7.33581
F         19.32499       10.01913        5.17736
Br        16.52064       11.79372        7.57147
F         16.76712        9.75151        5.78382
H         11.05671       -8.76817        5.06125
H         11.28086       -7.84252        6.55782
H         12.68410       -8.26971        5.56090
H         10.40594       -6.37478        4.68468
H         11.79828       -6.79873        3.69555
H         13.32944       -5.74221        5.39354
H         11.93709       -5.31770        6.38595
H         11.03022       -3.89748        4.51524
H         12.40881       -4.33286        3.51024
H         13.96573       -3.25364        5.17030
H         12.58949       -2.81588        6.18025
H         11.64496       -1.42775        4.31123
H         12.99199       -1.88797        3.27592
H         14.59923       -0.76279        4.85085
H         13.25858       -0.30459        5.89973
H         12.23431        1.02554        4.03375
H         13.53931        0.54195        2.95659
H         15.20323        1.73520        4.41367
H         13.91063        2.20636        5.51666
H         12.76856        3.45890        3.66370
H         14.03280        2.97176        2.54019
H         15.73440        4.24549        3.88521
H         14.48183        4.71486        5.03537
H         13.21450        5.86750        3.18652
H         14.47034        5.41445        2.03882
H         16.14255        6.77938        3.33191
H         14.89311        7.21922        4.49723
H         13.51156        8.20479        2.58742
H         14.85097        7.92714        1.49432
H         14.90022        9.72094        4.02016
H         14.67227       10.31844        2.36613
H         17.62073        8.80262        3.55347
H         16.81159       10.17203        0.40877
H         17.24127        8.49620        0.79602
H         20.95283       11.18309        0.26459
H         20.47655       11.29905       -1.46251
H         21.10834        8.86197       -1.75196
H         21.68270        8.82739       -0.07078
H         23.29823       10.71122       -0.61538
H         22.73567       10.69478       -2.28563
H         23.54655        8.29668       -2.50194
H         24.17446        8.38518       -0.85551
H         25.63267       10.34291       -1.53919
H         25.01023       10.21757       -3.18163
H         25.95614        7.86800       -3.33650
H         26.62504        8.04924       -1.71593
H         27.98200       10.02760       -2.50975
H         27.31785        9.82634       -4.12700
H         29.05260        7.73707       -2.65253
H         29.58857        8.78236       -3.98137
H         28.37461        7.52400       -4.27810
H         17.03908       12.13276        2.62467
H         18.52876       11.44895        3.29733
H         15.84719       11.97529        4.78327
H         17.33439       12.90204        4.93651
