58

C          1.73186        3.05510       -1.40954
C          2.47460        2.08541       -1.94967
C          2.79162        0.77967       -1.26941
C          4.26451        0.54426       -1.02329
C          5.11797        1.64544       -0.87380
N          6.43227        1.49330       -0.64916
C          7.33711        2.66509       -0.48963
C          8.05542        3.02417       -1.79596
C          7.17294        3.52356       -2.95582
C          6.45212        4.84105       -2.61390
C          5.39676        5.28882       -3.64431
C          4.56079        6.43111       -3.13948
C          4.41972        7.66118       -3.66840
C          5.09370        8.13839       -4.92687
C          3.53318        8.68321       -3.00606
C          8.03601        3.64746       -4.21992
N          7.03835        0.31148       -0.59697
C          6.25899       -0.75596       -0.72893
C          4.86245       -0.72479       -0.91818
C          4.10055       -2.01358       -0.94570
C          3.34922       -2.24854        0.38450
O          2.97319       -1.34823        1.10753
O          3.18044       -3.55798        0.58459
C          2.42791       -3.95451        1.79077
C          0.94176       -4.02250        1.50435
H          1.50616        3.96870       -1.95966
H          1.30640        2.96199       -0.40776
H          2.86806        2.20911       -2.96437
H          2.40310       -0.05776       -1.87316
H          2.27746        0.70641       -0.29702
H          4.74524        2.66904       -0.91986
H          8.05863        2.37265        0.28179
H          6.72101        3.48961       -0.11128
H          8.64025        2.14759       -2.11621
H          8.78981        3.80289       -1.53171
H          6.39986        2.75736       -3.16322
H          7.20054        5.64174       -2.48728
H          5.94521        4.75748       -1.63584
H          4.73954        4.42495       -3.86392
H          5.88350        5.54721       -4.59422
H          4.00983        6.22167       -2.21352
H          5.75182        7.39182       -5.38618
H          5.69254        9.04020       -4.72279
H          4.34216        8.43350       -5.67649
H          3.06358        8.29180       -2.09458
H          2.73647        9.01576       -3.69058
H          4.10618        9.58568       -2.73854
H          8.81529        4.41298       -4.08563
H          7.43502        3.93161       -5.09248
H          8.53612        2.69791       -4.45661
H          6.79456       -1.70600       -0.66985
H          4.76268       -2.86480       -1.14600
H          3.33403       -2.00525       -1.73766
H          2.66466       -3.23961        2.58821
H          2.84614       -4.93762        2.03552
H          0.53403       -3.03200        1.26628
H          0.42199       -4.39483        2.39797
H          0.72887       -4.71174        0.67731
