40

C          2.78869       -0.59055        1.20569
C          2.67142        0.08847        0.06223
C          3.10963       -0.37047       -1.30772
N          3.06826       -1.89801       -1.39955
C          1.66735       -2.45859       -1.54898
C          0.99663       -1.86243       -2.77762
C          0.91424       -0.32191       -2.72075
C          2.35169        0.21507       -2.50400
C          0.41923        0.26200       -4.07329
C         -1.00379       -0.09277       -4.51772
C         -1.32401        0.42077       -5.92363
C         -2.68764       -0.07721       -6.39909
O         -3.34430       -0.90275       -5.81081
O         -3.14166        0.45278       -7.56698
N          0.11299        0.06840       -1.51879
N          0.03582        1.49060       -1.43263
N         -1.15665       -0.54409       -1.33499
H          2.49608       -0.14291        2.15422
H          3.17120       -1.61390        1.28401
H          2.29248        1.11179        0.07341
H          4.17692       -0.11671       -1.42942
H          3.51168       -2.29249       -0.55889
H          3.63620       -2.19393       -2.20466
H          1.14032       -2.19388       -0.62520
H          1.76683       -3.54964       -1.61484
H          0.00116       -2.31704       -2.86346
H          1.54521       -2.15443       -3.68801
H          2.30634        1.30301       -2.36554
H          2.93679        0.02871       -3.41910
H          1.12630       -0.07110       -4.85296
H          0.53008        1.35708       -4.02132
H         -1.75146        0.33518       -3.83247
H         -1.17024       -1.18053       -4.51555
H         -0.56668        0.07375       -6.64793
H         -1.30098        1.52271       -5.95745
H         -2.51495        1.11299       -7.91233
H         -0.18867        1.70582       -0.45913
H         -0.76474        1.83359       -1.97940
H         -1.08723       -1.34134       -0.70442
H         -1.63570       -0.81275       -2.19663
