62

C          0.34560        8.47728        4.29580
C          1.87200        8.47601        4.40045
C          2.46066        7.08141        4.63584
C          3.98855        7.07187        4.73557
C          4.58157        5.68090        4.97856
C          6.11052        5.67973        5.06455
C          6.71491        4.29436        5.31191
C          8.24654        4.30509        5.35128
C          8.86130        2.92696        5.62247
C         10.39032        2.87275        5.47813
C         11.12851        3.72831        6.52331
C         12.62749        3.70528        6.26382
S         13.69132        4.67143        7.42123
C         12.70075        6.31781        7.49616
O         12.06652        6.61882        8.46296
O         12.92268        6.89905        6.34759
C         12.29940        8.25405        6.13551
C         13.23148        9.34848        6.61069
C         12.65026       10.73591        6.28910
C         13.57118       11.86741        6.75081
C         13.29806        3.97551        9.08456
C         14.52579        3.94783        9.92702
C         15.14363        2.86206       10.40983
Br        14.57681        1.09565       10.07700
Br        15.24765        5.66359       10.33631
H         -0.04610        9.49004        4.12913
H         -0.11656        8.08872        5.21539
H          0.00326        7.84648        3.46200
H          2.18675        9.14433        5.21979
H          2.30585        8.90076        3.47933
H          2.14369        6.40985        3.81877
H          2.03107        6.65659        5.56015
H          4.30436        7.74954        5.54840
H          4.41562        7.49208        3.80783
H          4.26232        5.00095        4.16984
H          4.16239        5.26219        5.90999
H          6.43004        6.36536        5.86972
H          6.52571        6.09509        4.12912
H          6.37859        3.60005        4.52302
H          6.32569        3.88780        6.26133
H          8.57235        5.02900        6.11889
H          8.62716        4.68646        4.38648
H          8.43311        2.19890        4.91571
H          8.57130        2.57788        6.62805
H         10.67004        3.21388        4.46688
H         10.73244        1.82874        5.56203
H         10.90035        3.34965        7.53187
H         10.76168        4.76493        6.47899
H         12.89283        4.12899        5.28347
H         13.06193        2.69480        6.31890
H         11.33501        8.25335        6.65869
H         12.14366        8.27272        5.05072
H         14.21009        9.23237        6.11958
H         13.39103        9.25661        7.69658
H         11.66423       10.84049        6.76962
H         12.47795       10.81692        5.20372
H         13.73441       11.83133        7.83726
H         13.13657       12.84609        6.51119
H         14.55304       11.80841        6.26018
H         12.90767        2.96192        8.91733
H         12.51516        4.63081        9.49704
H         16.02152        2.92060       11.04992
