57

C          0.21037       -0.97554        0.56654
C          1.73701       -1.01214        0.67433
C          2.31536        0.12853        1.51981
C          3.84438        0.10639        1.61726
C          4.42604        1.25873        2.44289
C          5.95712        1.25354        2.50822
C          6.54165        2.43101        3.29575
C          8.07400        2.44655        3.32439
C          8.65440        3.65497        4.06757
C         10.18764        3.68524        4.07312
C         10.74567        4.91634        4.80052
C         12.28176        4.95389        4.81433
C         12.96174        3.95580        5.77968
C         13.31186        4.78855        7.03623
C         13.26156        6.18321        6.53977
N         12.75549        6.27802        5.35399
C         12.70138        7.50696        4.56080
C         14.08202        7.75475        3.89998
C         14.01497        8.94989        2.94484
O         12.95923        8.70278        2.02572
O         15.09187        7.91303        4.88563
H         -0.17072       -1.80495       -0.04496
H         -0.13528       -0.03798        0.10592
H         -0.26275       -1.04936        1.55729
H          2.17859       -0.97224       -0.33605
H          2.05369       -1.97809        1.10310
H          1.88179        0.08655        2.53483
H          1.99161        1.09533        1.09472
H          4.27254        0.13694        0.59974
H          4.16935       -0.85563        2.05138
H          4.01446        1.22073        3.46694
H          4.08455        2.21865        2.01674
H          6.36340        1.26741        1.48148
H          6.30214        0.30505        2.95600
H          6.15518        2.41043        4.32979
H          6.17796        3.37665        2.85650
H          8.45675        2.43874        2.28896
H          8.44272        1.51636        3.79077
H          8.28457        3.65956        5.10755
H          8.27465        4.58299        3.60605
H         10.56062        3.67738        3.03460
H         10.56770        2.76185        4.54147
H         10.37689        4.94640        5.84010
H         10.36121        5.82357        4.30705
H         12.66573        4.86686        3.78662
H         13.87798        3.55205        5.33130
H         12.30513        3.11044        6.01021
H         14.29829        4.55947        7.46517
H         12.59300        4.67284        7.86686
H         13.58929        7.07411        7.07577
H         12.43700        8.34776        5.21701
H         11.92854        7.40277        3.79078
H         14.35788        6.85695        3.32392
H         14.99310        9.04288        2.44423
H         13.83653        9.87683        3.52952
H         13.00570        9.34773        1.30329
H         15.14189        8.84932        5.14609
