66

C          0.02728        0.82680       -0.71732
C          1.45842        0.81570       -1.25855
C          2.10237       -0.57462       -1.24232
C          3.54406       -0.58469       -1.75873
C          4.19730       -1.97029       -1.74332
C          5.65904       -1.95494       -2.20012
C          6.32710       -3.33364       -2.18318
C          7.81111       -3.28391       -2.55778
C          8.49856       -4.65376       -2.53531
C          9.99250       -4.55751       -2.87176
C         10.68028       -5.90852       -2.84520
O         12.08286       -5.70245       -3.19776
C         12.80848       -6.88471       -3.27867
N         14.07358       -6.55143       -3.96423
N         14.33609       -6.90645       -5.20930
N         15.44851       -6.32399       -5.58730
C         15.88343       -5.56013       -4.54900
N         15.01744       -5.69433       -3.51192
C         15.05686       -5.11922       -2.14923
C         15.61060       -6.09167       -1.09791
C         17.07722       -6.50839       -1.30733
C         17.56052       -7.42266       -0.20180
C         17.49085       -8.81589       -0.34386
C         17.90386       -9.65946        0.69049
C         18.39356       -9.11718        1.88160
C         18.47166       -7.72971        2.03172
C         18.05754       -6.88866        0.99643
C         17.02598       -4.74845       -4.54166
C         18.01874       -4.05614       -4.57832
H         -0.40590        1.83602       -0.74264
H         -0.00611        0.47578        0.32490
H         -0.62717        0.16864       -1.30798
H          2.08141        1.50836       -0.66752
H          1.46694        1.20646       -2.29003
H          1.49018       -1.26698       -1.84676
H          2.08140       -0.97279       -0.21238
H          4.15079        0.10811       -1.14909
H          3.56734       -0.18198       -2.78666
H          3.61764       -2.65691       -2.38472
H          4.14110       -2.38822       -0.72281
H          6.23139       -1.26790       -1.55203
H          5.72099       -1.53237       -3.21823
H          5.79387       -4.01027       -2.87332
H          6.22079       -3.77791       -1.17791
H          8.33655       -2.60440       -1.86425
H          7.92178       -2.83912       -3.56193
H          7.99883       -5.32807       -3.25118
H          8.37104       -5.11048       -1.53898
H         10.49214       -3.88697       -2.15434
H         10.12301       -4.11395       -3.87140
H         10.23502       -6.60337       -3.57929
H         10.62516       -6.37228       -1.84441
H         12.34981       -7.65454       -3.92401
H         13.05643       -7.32313       -2.29360
H         14.03285       -4.79526       -1.92264
H         15.69301       -4.22866       -2.24523
H         14.97200       -6.98624       -1.02960
H         15.50573       -5.57441       -0.13161
H         17.70637       -5.60476       -1.34970
H         17.19129       -7.02316       -2.27518
H         17.12565       -9.24828       -1.27928
H         17.85302      -10.74123        0.56166
H         18.72273       -9.77390        2.68726
H         18.86512       -7.30057        2.95387
H         18.13526       -5.80510        1.11738
H         18.89879       -3.44268       -4.62026
