78

C          3.23439        1.95560        2.39865
C          3.59718        1.50997        0.97944
C          4.89091        0.71435        0.95857
O          5.18794        0.33855       -0.40535
C          6.30209       -0.51419       -0.50092
N          6.38853       -0.96706       -1.88400
C          6.99411       -0.27924       -2.88183
N          6.41432       -0.20114       -4.09669
C          4.97278       -0.21106       -4.38343
C          4.28511        1.15426       -4.14060
C          4.71771        2.22278       -5.16484
N          4.28462        3.58133       -4.91582
C          4.99408        4.29250       -3.85536
C          4.42125        5.69019       -3.68673
O          3.06899        5.54039       -3.23618
O          2.87582        0.96057       -4.14444
N          8.20905        0.26432       -2.70641
C          9.25074       -0.15697       -1.75366
C         10.63297       -0.13579       -2.40593
C         11.72785       -0.46766       -1.38740
C         13.15030       -0.36314       -1.94626
C         14.20705       -0.66225       -0.87912
C         15.65266       -0.46270       -1.34174
C         16.66223       -0.73731       -0.22317
C         18.11688       -0.43309       -0.58978
C         19.08239       -0.67549        0.57426
C         20.53893       -0.31989        0.26652
C         21.47917       -0.54082        1.45592
C         22.93216       -0.16507        1.15975
H          2.28970        2.51322        2.39940
H          4.00702        2.61063        2.82615
H          3.11213        1.09558        3.07270
H          3.70312        2.38476        0.31979
H          2.79346        0.88800        0.55722
H          4.79769       -0.19996        1.57517
H          5.72960        1.31181        1.36410
H          6.18252       -1.40535        0.14202
H          7.23664       -0.00185       -0.22078
H          5.58208       -1.51294       -2.17926
H          7.02736        0.05384       -4.86536
H          4.46238       -0.97109       -3.77678
H          4.85980       -0.52278       -5.43273
H          4.52966        1.48107       -3.11624
H          4.33522        1.90097       -6.15430
H          5.81958        2.23083       -5.25230
H          3.27931        3.62351       -4.73833
H          6.05571        4.38251       -4.14223
H          4.95645        3.78321       -2.86800
H          4.45854        6.22016       -4.65393
H          5.02654        6.24849       -2.95049
H          2.63797        6.40812       -3.25108
H          2.56257        0.93376       -5.06531
H          8.50006        0.94685       -3.40163
H          8.99706       -1.16703       -1.40279
H          9.24768        0.51572       -0.88092
H         10.81943        0.86848       -2.82685
H         10.66011       -0.84745       -3.24681
H         11.56306       -1.48479       -0.99265
H         11.63401        0.21472       -0.52468
H         13.31037        0.65269       -2.34783
H         13.26990       -1.05407       -2.79811
H         14.07679       -1.69757       -0.51880
H         14.02302       -0.01314       -0.00470
H         15.77942        0.57269       -1.70355
H         15.86367       -1.11687       -2.20526
H         16.57667       -1.79152        0.09355
H         16.38590       -0.13476        0.66046
H         18.19724        0.61810       -0.91821
H         18.41897       -1.04685       -1.45622
H         19.02186       -1.73400        0.88296
H         18.74565       -0.08804        1.44691
H         20.59751        0.73604       -0.05174
H         20.89102       -0.91572       -0.59389
H         21.42617       -1.59783        1.76710
H         21.11429        0.04589        2.31609
H         23.33670       -0.76104        0.32817
H         23.57721       -0.33188        2.03342
H         23.01886        0.89528        0.87937
