72

C          5.14000       -9.66496        3.37965
C          6.38315       -9.16004        2.64394
C          6.17418       -7.79856        1.97293
C          7.40015       -7.30130        1.20043
C          7.18734       -5.94318        0.52493
C          8.39388       -5.47086       -0.29371
C          8.15344       -4.13359       -1.00433
C          9.32750       -3.63018       -1.82603
O          9.58637       -4.57132       -2.90074
C         10.70230       -4.24964       -3.71482
C         10.92784       -5.45962       -4.63363
C          9.89271       -5.68020       -5.75724
C          9.00003       -6.85520       -5.30126
C          9.93889       -7.75728       -4.46821
N         10.77848       -6.70416       -3.74681
C         10.82798       -8.80414       -5.14575
C         11.83027       -8.38842       -6.23412
O         12.61164       -9.52242       -6.51037
Si        13.63647       -9.72147       -7.85094
C         14.31887      -11.44691       -7.63155
C         12.62450       -9.55776       -9.42700
C         14.98591       -8.41206       -7.79256
C          8.24473       -7.53238       -6.45106
C          7.32916       -8.73251       -6.12826
C          6.17687       -8.40290       -5.15903
F          5.42743       -7.36313       -5.61646
F          5.36197       -9.45322       -4.97876
F          6.65665       -8.04503       -3.92493
O          6.81553       -9.29888       -7.31655
H          5.32335      -10.63672        3.85768
H          4.29184       -9.78789        2.69002
H          4.82839       -8.96132        4.16547
H          6.68471       -9.89772        1.88070
H          7.22817       -9.09028        3.34946
H          5.89734       -7.05384        2.73907
H          5.31237       -7.86059        1.28549
H          7.67060       -8.05037        0.43407
H          8.26438       -7.23985        1.88479
H          6.94820       -5.18504        1.29000
H          6.30380       -5.99876       -0.13429
H          8.63430       -6.25041       -1.03936
H          9.27691       -5.38526        0.36373
H          7.92523       -3.35456       -0.25891
H          7.26643       -4.20384       -1.65454
H         10.24169       -3.53949       -1.21037
H          9.10852       -2.64426       -2.26937
H         11.59786       -4.05862       -3.09200
H         10.52202       -3.35133       -4.33127
H         11.95239       -5.44060       -5.02374
H         10.40842       -5.91993       -6.69709
H          9.29932       -4.77353       -5.92782
H          8.26716       -6.44381       -4.59149
H          9.36650       -8.27041       -3.68228
H         11.67979       -7.08040       -3.43308
H         10.24620       -6.34259       -2.92387
H         10.17107       -9.57831       -5.56838
H         11.40373       -9.32197       -4.35976
H         12.47365       -7.55207       -5.88431
H         11.29971       -8.02799       -7.13598
H         13.51269      -12.19336       -7.63481
H         14.86741      -11.54245       -6.68449
H         15.01157      -11.69774       -8.44744
H         11.80732      -10.29204       -9.45545
H         13.26103       -9.73741      -10.30565
H         12.18955       -8.55494       -9.54910
H         15.57132       -8.48140       -6.86464
H         14.58312       -7.39136       -7.86931
H         15.68372       -8.54414       -8.63234
H          8.95626       -7.90112       -7.20521
H          7.63170       -6.76600       -6.95182
H          7.89592       -9.54336       -5.64365
H          6.25176       -8.64580       -7.76624
