72

C          1.73483      -10.84231       -0.79370
C          3.22444      -10.53368       -0.95675
C          3.50071       -9.09808       -1.41660
C          4.99247       -8.79352       -1.57801
C          5.29229       -7.35705       -2.02183
C          6.79522       -7.10346       -2.18542
C          7.12902       -5.67345       -2.57652
O          8.55909       -5.58382       -2.73328
C          9.01939       -4.29203       -3.02781
C         10.52548       -4.35503       -3.17962
C         11.19650       -5.56720       -3.05760
C         12.59132       -5.67216       -3.16678
C         13.28354       -4.46997       -3.40376
C         12.59468       -3.28305       -3.53273
N         11.24116       -3.21833       -3.43198
C         10.58382       -1.87277       -3.59665
C         10.92630       -0.99041       -2.39565
O         10.45101       -1.64890       -1.22745
C         10.94301       -1.24057       -4.95338
C         10.01988       -0.07763       -5.33190
C         13.30889       -7.00787       -3.00431
C         13.47287       -7.33755       -1.47518
C         12.28843       -7.33770       -0.48300
C         11.33681       -8.53787       -0.60856
C         12.86257       -7.29305        0.94374
C         12.53352       -8.12084       -3.74199
O         12.45669       -7.76404       -5.12458
C         14.73234       -6.95897       -3.60155
H          1.57337      -11.87847       -0.46701
H          1.19297      -10.70372       -1.74085
H          1.27052      -10.18171       -0.04671
H          3.66980      -11.23658       -1.68110
H          3.74566      -10.71310       -0.00122
H          3.05809       -8.39250       -0.69178
H          2.98232       -8.91539       -2.37410
H          5.42913       -9.49629       -2.30925
H          5.50912       -8.99078       -0.62243
H          4.87323       -6.65202       -1.28341
H          4.77433       -7.15047       -2.97393
H          7.20284       -7.78155       -2.95276
H          7.31672       -7.33942       -1.24364
H          6.79869       -4.96025       -1.79806
H          6.63845       -5.39188       -3.52768
H          8.76449       -3.57537       -2.22034
H          8.56319       -3.90979       -3.96706
H         10.57221       -6.43776       -2.87700
H         14.36566       -4.44634       -3.50940
H         13.10356       -2.34225       -3.72956
H          9.50447       -2.06023       -3.57504
H         10.43651       -0.01369       -2.54273
H         12.01840       -0.81676       -2.35052
H         10.59851       -1.07764       -0.45787
H         10.87847       -2.02443       -5.72297
H         11.98851       -0.89396       -4.94609
H          8.96754       -0.39425       -5.36309
H         10.28208        0.29830       -6.32866
H         10.10030        0.76641       -4.63453
H         14.21331       -6.61305       -1.09941
H         13.97248       -8.32101       -1.42779
H         11.70192       -6.41322       -0.62523
H         11.89226       -9.48687       -0.55824
H         10.75529       -8.54045       -1.53959
H         10.61358       -8.53672        0.21846
H         13.47438       -8.18499        1.14857
H         12.05586       -7.26793        1.68877
H         13.49686       -6.40907        1.09947
H         11.52509       -8.26161       -3.32484
H         13.08688       -9.06575       -3.59857
H         12.03487       -8.49069       -5.60777
H         15.38352       -6.26293       -3.05610
H         14.71602       -6.68549       -4.66352
H         15.19070       -7.95348       -3.52006
