73

C          1.11111       -0.82013       -0.15492
C          2.63345       -0.72290       -0.02914
C          3.10194       -0.30185        1.36814
C          4.62505       -0.21836        1.50736
C          5.09490        0.18462        2.90867
C          6.61936        0.20200        3.05918
C          7.09733        0.56337        4.46918
C          8.61897        0.49111        4.62665
C          9.10862        0.78888        6.04845
C         10.62608        0.62068        6.18768
C         11.12440        0.85190        7.60303
O         12.54519        0.56703        7.61544
C         13.13192        0.69096        8.87436
N         14.53795        0.30706        8.70912
C         15.00047       -0.95059        8.77285
N         16.28956       -0.95484        8.40477
C         16.67127        0.34993        8.07466
C         15.55768        1.12800        8.26920
C         18.04127        0.74480        7.64752
C         19.03548        0.86962        8.81375
O         20.27764        1.20167        8.24306
C         21.32373        1.36899        9.20460
C         22.59359        1.75543        8.44556
O         23.70219        1.87471        9.33048
C         17.10836       -2.18232        8.29478
C         16.68393       -3.09201        7.12550
C         16.79035       -2.38569        5.76914
C         17.52626       -4.37371        7.17203
H          0.80761       -1.11848       -1.16779
H          0.62898        0.14384        0.06579
H          0.69974       -1.56171        0.54634
H          3.01997       -0.00502       -0.77249
H          3.08787       -1.69509       -0.28558
H          2.70797       -1.01620        2.11306
H          2.65514        0.67514        1.62390
H          5.02148        0.50006        0.76813
H          5.06767       -1.19532        1.24384
H          4.66712       -0.51400        3.64944
H          4.68738        1.17884        3.16241
H          7.05274        0.91091        2.33187
H          7.01952       -0.79052        2.78622
H          6.62561       -0.11941        5.19774
H          6.74494        1.57595        4.73199
H          9.09756        1.19179        3.92052
H          8.96367       -0.51579        4.33233
H          8.59669        0.11439        6.75659
H          8.81515        1.81328        6.33475
H         11.14881        1.31270        5.50836
H         10.91396       -0.39848        5.88292
H         10.61522        0.18140        8.32076
H         10.95609        1.89475        7.92917
H         12.68027        0.01771        9.62766
H         13.11027        1.72532        9.26491
H         14.42011       -1.81886        9.06287
H         15.41149        2.19088        8.11813
H         17.97929        1.71421        7.13481
H         18.44175        0.03246        6.91144
H         19.10039       -0.08008        9.38559
H         18.69240        1.65046        9.52201
H         21.49276        0.42995        9.76416
H         21.05098        2.15678        9.93428
H         22.41872        2.67919        7.86827
H         22.84652        0.95997        7.72971
H         23.67893        2.74928        9.74757
H         17.03258       -2.71336        9.25371
H         18.15181       -1.86368        8.17948
H         15.62809       -3.37249        7.29009
H         17.83203       -2.10946        5.54509
H         16.17528       -1.47592        5.71770
H         16.45007       -3.05152        4.96584
H         18.59215       -4.15751        7.00452
H         17.20436       -5.06933        6.38654
H         17.43213       -4.89322        8.13596
