58

O          1.56511        1.57485        0.43652
C          2.75526        0.86850        0.12417
C          3.67289        1.03979        1.33715
C          4.96555        0.20119        1.40580
C          5.73799        0.55452        2.69434
C          6.54750        1.85503        2.64094
C          7.23658        2.16397        3.98480
C          8.20343        3.31859        3.86420
C          9.55592        3.08519        3.57725
C         10.44613        4.14712        3.40424
C          9.99249        5.46406        3.51406
C          8.64796        5.71023        3.80551
C          7.76197        4.64484        3.97967
C          5.82204        0.28883        0.12197
C          5.52677       -0.81369       -0.90156
C          5.94180       -2.17649       -0.33802
C          5.26220       -2.51289        1.00767
N          4.48431       -1.27507        1.57934
C          6.09212       -3.17382        2.08242
C          5.53835       -4.29378        2.72500
C          6.22352       -4.99549        3.71499
C          7.50463       -4.57736        4.07382
C          8.08975       -3.47093        3.45588
C          7.39512       -2.76198        2.46728
O          7.90204       -1.65664        1.84272
C          9.20650       -1.18446        2.21096
H          1.00910        1.63496       -0.35590
H          3.23241        1.25924       -0.79130
H          2.52451       -0.20477       -0.07142
H          3.06871        0.85001        2.24147
H          3.96359        2.09821        1.39728
H          6.43232       -0.26530        2.92156
H          5.01394        0.60876        3.52701
H          5.91274        2.71036        2.36085
H          7.32308        1.78176        1.86356
H          7.77636        1.26679        4.33063
H          6.47270        2.38344        4.74798
H          9.91978        2.05688        3.50145
H         11.49720        3.94649        3.19251
H         10.68614        6.29498        3.38394
H          8.28940        6.73553        3.90416
H          6.71485        4.84592        4.21764
H          6.88298        0.21958        0.39390
H          5.67461        1.28499       -0.31650
H          6.09880       -0.61833       -1.81811
H          4.46796       -0.81544       -1.20858
H          7.02837       -2.18373       -0.20438
H          5.69468       -2.98085       -1.04278
H          4.42825       -3.20027        0.80879
H          4.37031       -1.44524        2.58741
H          3.54169       -1.31460        1.17044
H          4.54470       -4.63155        2.42016
H          5.76690       -5.86261        4.18997
H          8.06453       -5.11584        4.83880
H          9.09266       -3.16479        3.74706
H          9.24403       -0.90622        3.27532
H          9.37784       -0.29404        1.59679
H          9.98004       -1.93466        1.99195
