66

C          1.45240       -1.14911       -1.47373
C          2.85447       -0.81607       -0.95861
C          3.32753       -1.75556        0.15694
C          4.74646       -1.44718        0.64482
C          5.23425       -2.39336        1.74954
C          6.68974       -2.12689        2.15589
C          7.21673       -2.97692        3.31133
N          7.06020       -4.48727        2.96674
C          8.43205       -5.13450        2.96806
C          9.37560       -3.94890        2.76457
C          8.72538       -2.81912        3.61230
C          9.05256       -2.87080        5.11718
C          8.38124       -1.79437        5.99660
C          8.79787       -1.99830        7.46000
C          8.69226       -0.36689        5.52651
C         10.84259       -4.27217        3.04831
C         11.40003       -5.29956        2.06626
O         10.72202       -5.89003        1.24166
O         12.71465       -5.46525        2.25593
C         13.39687       -6.44381        1.39839
C         13.92679       -5.79738        0.12750
C         14.75925       -6.78386       -0.70232
C         15.32136       -6.16474       -1.98782
C         16.16480       -7.14464       -2.80661
H          1.14634       -0.45818       -2.26980
H          0.70338       -1.08286       -0.67133
H          1.40842       -2.16838       -1.88484
H          2.87692        0.22305       -0.59021
H          3.57394       -0.85643       -1.79359
H          3.28434       -2.79833       -0.20509
H          2.62406       -1.69987        1.00591
H          4.79443       -0.40954        1.01637
H          5.44503       -1.49672       -0.20832
H          5.10856       -3.43156        1.38101
H          4.57808       -2.30672        2.63280
H          6.79066       -1.07853        2.47694
H          7.35373       -2.23716        1.28040
H          6.60100       -2.81536        4.20629
H          6.62391       -4.56335        2.03860
H          6.42210       -4.95075        3.62092
H          8.48942       -5.88769        2.17661
H          8.57127       -5.61579        3.94471
H          9.30858       -3.65950        1.70202
H          9.05215       -1.84828        3.21331
H         10.14337       -2.76939        5.23513
H          8.79946       -3.86299        5.53185
H          7.28456       -1.93318        5.95237
H          9.88068       -1.84882        7.58611
H          8.55685       -3.01111        7.81297
H          8.28629       -1.28455        8.11867
H          9.77787       -0.18699        5.49531
H          8.25729        0.36921        6.21540
H          8.28865       -0.14832        4.52748
H         10.99128       -4.66385        4.06670
H         11.45719       -3.36213        2.98407
H         12.69508       -7.25934        1.17927
H         14.21122       -6.81841        2.03118
H         14.54267       -4.92521        0.39970
H         13.08166       -5.42429       -0.47240
H         14.14190       -7.66144       -0.96113
H         15.59309       -7.16809       -0.08967
H         15.92958       -5.28249       -1.72700
H         14.48774       -5.78748       -2.60333
H         17.02782       -7.50852       -2.22995
H         16.55189       -6.67376       -3.72011
H         15.57631       -8.02307       -3.11027
