51

O         -1.39756       -4.02704       -1.27107
C         -0.06350       -4.19221       -1.76314
C          0.55145       -2.79356       -1.78141
C         -0.12804       -1.88458       -2.83686
P          0.43911       -0.16651       -2.65827
C          2.22639       -0.07232       -2.60012
C          2.98869       -0.34243       -3.75081
C          4.38004       -0.30245       -3.67321
C          5.00649        0.00490       -2.46002
C          4.24684        0.26955       -1.31715
C          2.85364        0.22888       -1.37915
C         -0.26356        0.89324       -3.96115
C         -1.80189        0.93544       -4.03845
C         -2.48965        1.55177       -2.81468
N         -3.89654        1.77518       -3.08971
C         -4.60765        2.51765       -2.03017
C         -6.08593        2.58820       -2.32970
C         -6.56344        3.37722       -3.38566
C         -7.92267        3.45478       -3.68736
C         -8.83828        2.73355       -2.91534
C         -8.39085        1.93941       -1.86095
C         -7.02217        1.85987       -1.57256
O         -6.54953        1.07005       -0.54820
O          0.46034       -2.18997       -0.49314
H         -1.75068       -4.88705       -0.99816
H         -0.05259       -4.63596       -2.77430
H          0.53586       -4.82758       -1.09107
H          1.62375       -2.88108       -2.01606
H         -1.22177       -1.89242       -2.70994
H          0.10073       -2.20777       -3.86497
H         -0.01117        0.30269       -1.40925
H          2.50875       -0.58434       -4.70116
H          4.97728       -0.51038       -4.56094
H          6.09512        0.03435       -2.40709
H          4.73811        0.50576       -0.37329
H          2.26037        0.41623       -0.48333
H          0.16733        0.53514       -4.90938
H          0.15744        1.89592       -3.78277
H         -2.20112       -0.07276       -4.23574
H         -2.06821        1.54095       -4.91716
H         -2.03158        2.53260       -2.59661
H         -2.31154        0.92400       -1.90686
H         -4.38144        0.89097       -3.25655
H         -4.18676        3.53679       -2.00524
H         -4.45166        2.07592       -1.02863
H         -5.84072        3.93995       -3.97960
H         -8.26843        4.07901       -4.51077
H         -9.90586        2.78916       -3.13037
H         -9.10415        1.37513       -1.25428
H         -7.30916        0.67796       -0.08810
H         -0.38771       -2.49185       -0.11296
