41

C          1.39404       -4.77318       -4.17709
C          2.88811       -4.62127       -3.87539
C          3.12184       -3.87754       -2.57350
O          4.55239       -3.76007       -2.35066
C          4.88028       -3.12480       -1.14737
C          6.36221       -3.06618       -1.02279
N          7.10279       -3.55436       -1.96510
C          8.55084       -3.45847       -1.72812
C          8.62670       -2.49759       -0.51621
C          7.19771       -2.54868        0.11434
C          6.71019       -1.28243        0.85072
C          5.53519       -1.49802        1.81533
C          5.87770       -2.36184        3.04839
C          4.71309       -2.61891        3.88405
C          3.72508       -2.82704        4.54982
N          9.01491       -1.11938       -0.87625
O         10.33227       -1.27214       -1.42254
O          8.13999       -0.77231       -1.97795
H          1.24589       -5.31234       -5.12061
H          0.89963       -3.79609       -4.27217
H          0.87779       -5.33789       -3.38790
H          3.38513       -4.07548       -4.69215
H          3.36424       -5.61173       -3.81104
H          2.67312       -4.41880       -1.72079
H          2.68372       -2.86361       -2.60955
H          4.47247       -3.65417       -0.25965
H          4.48897       -2.08543       -1.08772
H          6.66736       -3.97636       -2.79167
H          9.05942       -3.06754       -2.61690
H          8.94434       -4.45901       -1.49904
H          9.38743       -2.81954        0.20211
H          7.21189       -3.37898        0.84892
H          6.45076       -0.51380        0.11008
H          7.57135       -0.88414        1.40728
H          4.66616       -1.93688        1.30244
H          5.19759       -0.51277        2.16681
H          6.65878       -1.85788        3.64255
H          6.30920       -3.33265        2.74404
H          2.86483       -3.00913        5.15983
H         10.78410       -0.45470       -1.14701
H          8.14408        0.20107       -1.96223
