43

C          0.99373       -0.15731        0.19592
C          2.49244       -0.04244        0.06049
O          3.09787       -1.06495        0.95134
C          4.41660       -1.03851        1.07217
O          5.20872       -0.28932        0.54270
C          4.85710       -2.14323        2.06302
N          6.30784       -2.26759        2.06708
C          7.11296       -3.12768        1.39641
C          6.65573       -4.22295        0.50001
C          7.82464       -4.98055       -0.15280
C          7.29503       -6.11781       -1.02873
S          8.69210       -6.98852       -1.78841
C          7.97977       -7.58631       -3.30207
S          6.47905       -7.22805       -3.86582
N          8.88442       -8.39917       -3.99110
C         10.09028       -8.94907       -3.52482
N         10.68347       -9.66108       -4.44100
C          9.86235       -9.59066       -5.56343
C          8.75399       -8.83512       -5.31459
N          8.39060       -2.81415        1.67469
N          8.39997       -1.76612        2.47501
N          7.15095       -1.41886        2.71888
C          6.75487       -0.32609        3.54352
C          7.52426        0.07445        4.55655
H          0.52037        0.58246       -0.46355
H          0.66621        0.04660        1.22330
H          0.63789       -1.15194       -0.10084
H          2.88032        0.93612        0.37291
H          2.84885       -0.25135       -0.95718
H          4.43865       -3.11556        1.77656
H          4.50266       -1.91957        3.07869
H          5.99664       -3.79163       -0.27347
H          6.02806       -4.91913        1.08493
H          8.49170       -5.36455        0.63287
H          8.42265       -4.28576       -0.75959
H          6.66581       -5.75988       -1.86075
H          6.70381       -6.84004       -0.44610
H         10.43396       -8.80747       -2.50451
H         10.12891      -10.09744       -6.48555
H          7.89849       -8.54925       -5.91241
H          5.83886        0.16415        3.22158
H          8.44931       -0.43430        4.82513
H          7.23144        0.95280        5.12876
