73

F          1.55144       -1.50721       -2.93082
C          1.63669       -0.20357       -3.44621
C          2.64289        0.59645       -2.63137
C          4.04197       -0.00911       -2.73550
N          5.04572        0.69731       -1.85291
C          4.97348        0.21003       -0.41863
C          5.44103        1.27609        0.58214
P          4.40876        2.78162        0.46230
O          4.11358        3.05519       -0.98078
O          3.04775        2.53149        1.24587
C          2.80893        2.78196        2.67369
C          3.25583        1.62945        3.55153
O          5.26206        3.86938        1.23907
C          5.07000        5.31353        0.96694
C          6.15135        5.82058        0.03793
C          6.45526        0.61229       -2.40464
C          6.69519        1.50727       -3.61724
C          6.60129        3.01142       -3.33140
C          6.84019        3.87562       -4.57355
C          6.67173        5.37327       -4.29775
C          6.85285        6.25081       -5.54069
C          6.56724        7.73409       -5.28617
C          6.74865        8.61629       -6.52572
C          6.37108       10.08275       -6.29315
C          6.56305       10.97132       -7.52626
C          6.14945       12.43011       -7.30231
C          6.35298       13.31570       -8.53389
H          0.63680        0.24870       -3.38590
H          1.92950       -0.28771       -4.50519
H          2.29745        0.63537       -1.58719
H          2.64948        1.63431       -2.99762
H          4.41136        0.06779       -3.76572
H          4.04700       -1.07160       -2.45467
H          4.74808        1.71883       -1.77882
H          5.58277       -0.70098       -0.34762
H          3.92937       -0.06663       -0.22443
H          6.48566        1.57363        0.41187
H          5.39134        0.85502        1.59455
H          1.72399        2.93023        2.72864
H          3.30486        3.72269        2.95007
H          2.82365        0.67962        3.20968
H          2.90670        1.80451        4.57847
H          4.34956        1.53661        3.59192
H          5.11600        5.78429        1.95672
H          4.06527        5.46661        0.54825
H          7.14860        5.64021        0.46017
H          6.03095        6.90445       -0.09944
H          6.08461        5.34429       -0.94856
H          6.63532       -0.44835       -2.63259
H          7.13067        0.90010       -1.58741
H          6.01649        1.23431       -4.44204
H          7.70436        1.25920       -3.98381
H          7.33343        3.27695       -2.54841
H          5.61288        3.26565       -2.91558
H          6.13358        3.57268       -5.36599
H          7.84849        3.68012       -4.97641
H          7.38950        5.68706       -3.51929
H          5.66697        5.54915       -3.87317
H          6.18530        5.88720       -6.34134
H          7.87988        6.13221       -5.92713
H          7.22163        8.10194       -4.47609
H          5.53349        7.84235       -4.91190
H          6.13841        8.21170       -7.35233
H          7.79655        8.55582       -6.86781
H          6.96732       10.48677       -5.45593
H          5.31738       10.13741       -5.96619
H          5.98459       10.55530       -8.36999
H          7.62096       10.93599       -7.84121
H          6.71962       12.84273       -6.45275
H          5.08976       12.46149       -6.99666
H          7.41120       13.34516       -8.83373
H          6.03344       14.34961       -8.34464
H          5.77766       12.94272       -9.39435
