76

C          1.50891        0.20588        0.72600
O          2.84625        0.46283        0.32077
C          3.67570        0.83286        1.40688
C          5.05042        1.15601        0.83798
O          5.86713        1.60492        1.91846
C          7.13249        2.07419        1.49771
C          7.80185        2.68397        2.72480
O          8.84110        3.56158        2.25836
C          9.37671        4.38646        3.25744
C         10.27699        5.37316        2.51044
N         10.70267        6.54605        3.35436
C          9.77768        7.79700        3.44721
C         10.63679        8.85343        2.73375
O         11.96871        8.49622        3.09979
C         12.07080        7.13445        2.84018
C         13.28579        6.53338        3.51153
C         14.47904        6.52774        2.51364
O         14.22115        6.49980        1.31675
C         15.86180        6.51425        3.03818
C         16.91314        6.51829        2.09858
C         18.23568        6.49995        2.52563
C         18.52763        6.47020        3.89522
C         17.49342        6.46047        4.83633
C         16.16565        6.48566        4.41322
C          8.35696        7.60813        2.93108
C          7.56098        8.92013        3.05653
C          6.04220        8.76615        3.20961
C          5.14764        8.54694        1.92547
C          5.27693        7.25586        1.02204
C          5.06847        5.79814        1.59325
C          3.72425        5.36078        2.29935
C          2.39261        5.38195        1.46054
F          2.54161        4.70670        0.30871
F          1.43207        4.79214        2.19099
F          2.01819        6.64281        1.19022
F          3.93446        4.07575        2.68487
F          3.53957        6.11812        3.40760
F          5.28010        4.96361        0.54556
F          6.06119        5.57077        2.50871
F          4.41249        7.41802       -0.00423
F          6.54769        7.25680        0.50045
F          3.85324        8.64936        2.30521
F          5.43534        9.58488        1.08354
F          5.75238        7.78445        4.12148
F          5.57641        9.94497        3.73045
H          0.94484       -0.05251       -0.17763
H          1.05262        1.09710        1.19567
H          1.45531       -0.63621        1.44015
H          3.75116        0.01594        2.15170
H          3.27110        1.72259        1.92666
H          4.95734        1.94860        0.07160
H          5.48881        0.26363        0.35429
H          7.02881        2.86082        0.72527
H          7.74553        1.25880        1.06776
H          8.22301        1.91143        3.39145
H          7.04584        3.25988        3.28641
H          9.96792        3.81314        4.00382
H          8.57306        4.91092        3.81163
H          9.76345        5.75272        1.62051
H         11.19403        4.87190        2.17312
H         10.85370        6.21146        4.31351
H          9.75436        8.03536        4.52007
H         10.44397        9.87029        3.09152
H         10.50125        8.81531        1.63712
H         12.07151        6.91463        1.75728
H         13.10750        5.47905        3.78232
H         13.50075        7.08629        4.43497
H         16.66388        6.53778        1.03780
H         19.04436        6.50766        1.79469
H         19.56539        6.45445        4.23013
H         17.72447        6.43545        5.90130
H         15.37560        6.47848        5.16456
H          7.85334        6.83823        3.52635
H          8.36074        7.27135        1.88847
H          7.75404        9.60238        2.21770
H          7.84865        9.45259        3.97676
