46

C          1.61741       -1.11617       -0.50948
O          2.99286       -0.79514       -0.23298
C          3.33038       -1.02235        1.12329
N          4.75096       -0.74175        1.31351
C          5.21525        0.52366        1.09398
N          6.48410        0.84286        1.39042
C          7.01674        2.14582        0.94477
O          6.29176        2.61559       -0.16528
C          4.92397        2.77130        0.18065
N          4.38476        1.45303        0.58611
C          4.17981        3.31889       -1.02149
C          4.48598        4.80750       -1.19832
O          4.80872        5.53647       -0.28209
O          4.30869        5.16950       -2.47705
C          4.51714        6.58752       -2.79612
C          5.96220        6.86179       -3.18869
C          6.15988        8.32780       -3.58965
C          5.55444       -1.71858        2.06784
C          6.73467       -2.28108        1.26729
O          7.69544       -1.59560        0.94077
O          6.58847       -3.57441        1.00389
C          7.67966       -4.21791        0.27487
H          1.45836       -0.89268       -1.56888
H          0.93204       -0.50884        0.10458
H          1.42331       -2.18524       -0.32727
H          3.15897       -2.07383        1.40296
H          2.71838       -0.37361        1.78414
H          7.14748        0.04531        1.39753
H          8.05505        1.99942        0.62628
H          6.97377        2.86541        1.78008
H          4.83661        3.47052        1.03017
H          3.58323        1.07188        0.07568
H          3.09335        3.22620       -0.86170
H          4.43870        2.75701       -1.92901
H          4.21245        7.18614       -1.92721
H          3.82846        6.77199       -3.63059
H          6.23913        6.19793       -4.02193
H          6.61905        6.61192       -2.34172
H          5.52377        8.60303       -4.44335
H          7.20143        8.51289       -3.88096
H          5.92065        9.00817       -2.76017
H          4.89149       -2.53302        2.37269
H          5.96158       -1.24962        2.97840
H          7.45144       -5.28578        0.31216
H          8.63607       -3.99708        0.76173
H          7.69168       -3.85496       -0.75983
