75

C         14.13132       -1.52532       11.53348
C         13.95531       -2.15929       10.15170
C         12.56853       -2.77604        9.93937
C         12.38265       -3.40956        8.55790
C         11.00456       -4.04273        8.33694
C         10.86149       -4.68008        6.95345
C          9.50708       -5.34011        6.67612
C          9.42631       -6.00023        5.29103
C         10.26381       -7.28177        5.16509
C         10.34143       -7.86208        3.74774
C         11.14122       -7.03552        2.72844
N         12.57761       -6.82334        3.07292
C         12.90471       -5.65946        3.67099
N         13.76974       -5.46838        4.71955
C         13.77281       -4.13639        5.04707
N         12.97478       -3.45965        4.27441
N         12.45602       -4.39364        3.39956
C         11.63452       -3.91884        2.32462
C         11.96862       -4.21286        1.00405
C         11.13595       -3.70560        0.00368
N         10.05857       -2.94763        0.24805
C          9.77877       -2.65591        1.52619
C         10.53221       -3.11525        2.61047
C         13.57093       -7.98017        3.02931
C         13.13783       -9.08253        2.01215
C         13.42144       -8.95060        0.49804
C         13.16399      -10.31845       -0.15469
C         12.63795       -7.86053       -0.24421
C         14.93599       -7.39556        2.57653
O         15.86111       -8.47214        2.52725
C         13.69046       -8.67870        4.40274
H         15.13567       -1.09772       11.65518
H         13.98665       -2.26587       12.33380
H         13.40428       -0.71645       11.69677
H         14.72442       -2.93777       10.00389
H         14.13805       -1.39974        9.37196
H         11.79767       -2.00046       10.08909
H         12.38471       -3.53740       10.71709
H         13.16209       -4.18189        8.40991
H         12.55792       -2.64246        7.78121
H         10.22256       -3.27672        8.47286
H         10.82055       -4.80420        9.11391
H         11.66779       -5.42652        6.83403
H         11.04075       -3.90795        6.18468
H          8.71426       -4.57996        6.75975
H          9.28862       -6.09034        7.45503
H          9.73591       -5.26110        4.53135
H          8.37780       -6.24273        5.05614
H          9.83456       -8.04797        5.82923
H         11.28301       -7.11068        5.54878
H          9.32581       -7.94735        3.32541
H         10.72825       -8.89036        3.78691
H         10.68216       -6.04758        2.62207
H         11.09254       -7.49420        1.73797
H         14.22008       -6.21945        5.23247
H         14.35731       -3.71310        5.85726
H         12.84845       -4.80537        0.75766
H         11.35541       -3.91293       -1.04668
H          8.90412       -2.02382        1.69746
H         10.27372       -2.85235        3.63527
H         12.08051       -9.33737        2.17534
H         13.69089       -9.97259        2.34241
H         14.49624       -8.73872        0.38144
H         12.10987      -10.61877       -0.04951
H         13.78427      -11.10377        0.29852
H         13.39270      -10.28920       -1.22840
H         11.55666       -8.06822       -0.25244
H         12.95880       -7.81225       -1.29378
H         12.78668       -6.86124        0.18625
H         15.29841       -6.61789        3.26913
H         14.80255       -6.92037        1.58858
H         16.72598       -8.13302        2.25055
H         12.77969       -9.24079        4.63927
H         13.87040       -8.00262        5.25145
H         14.53197       -9.37999        4.37082
