73

C          0.59292       -0.15575        0.18075
C          2.12085       -0.05922        0.18873
C          2.66836        1.04387       -0.72443
C          4.19703        1.14668       -0.71010
C          4.75401        2.25947       -1.60494
C          6.28257        2.36060       -1.56483
C          6.85887        3.47043       -2.45098
C          8.38770        3.55674       -2.38701
C          8.98859        4.66468       -3.25932
C         10.51827        4.72267       -3.17690
C         11.14275        5.82889       -4.03456
C         12.67827        5.84314       -3.94314
C         13.24723        6.96713       -4.79798
N         14.77794        6.99438       -4.95732
C         15.47414        7.05104       -3.60995
C         15.22971        8.46983       -3.10162
C         15.04642        9.33424       -4.37998
C         15.14474        8.37200       -5.58405
C         16.51334        8.43500       -6.27395
C         16.50531        9.57575       -7.31367
N         15.53528        9.27091       -8.37035
C         15.25628        5.79075       -5.74007
C         14.72232        5.68220       -7.17684
C         15.68176        4.86403       -8.05306
O         15.30292        4.89911       -9.41226
O         13.39547        5.14344       -7.24493
H          0.23640       -0.95448        0.84549
H          0.21069       -0.36879       -0.82866
H          0.13133        0.78513        0.51573
H          2.55303       -1.02793       -0.11480
H          2.47326        0.11724        1.21917
H          2.23414        2.01384       -0.42361
H          2.32205        0.86710       -1.75804
H          4.63003        0.17928       -1.02076
H          4.53987        1.30976        0.32692
H          4.31583        3.22636       -1.30060
H          4.42437        2.09302       -2.64549
H          6.71884        1.39188       -1.86628
H          6.60732        2.52439       -0.52220
H          6.42421        4.44051       -2.15240
H          6.54385        3.30685       -3.49639
H          8.81836        2.58507       -2.68703
H          8.69835        3.71245       -1.33897
H          8.56774        5.63940       -2.95709
H          8.68290        4.51399       -4.30910
H         10.93483        3.74711       -3.48402
H         10.82082        4.86296       -2.12460
H         10.74490        6.80868       -3.72008
H         10.84537        5.69835       -5.08839
H         13.05461        4.86328       -4.27467
H         12.97270        5.96074       -2.88855
H         12.96639        7.94115       -4.38178
H         12.85393        6.90658       -5.81880
H         16.53784        6.86195       -3.80399
H         15.09343        6.25315       -2.96478
H         16.07428        8.80416       -2.48898
H         14.33777        8.51239       -2.46416
H         15.82544       10.10131       -4.46258
H         14.08751        9.86511       -4.36318
H         14.38246        8.56397       -6.35125
H         16.75107        7.51294       -6.82006
H         17.32269        8.59275       -5.54555
H         17.53719        9.72233       -7.67585
H         16.20858       10.52061       -6.83453
H         15.94720        8.67915       -9.09296
H         15.21644       10.11862       -8.83636
H         14.97294        4.90450       -5.15722
H         16.35148        5.83579       -5.73804
H         14.63390        6.68221       -7.63087
H         15.74153        3.82375       -7.66630
H         16.69756        5.28583       -8.00587
H         14.37312        4.62192       -9.47903
H         13.42302        4.20430       -6.99128
