72

S          2.42300       -0.13171        2.35214
C          3.35696        0.21796        1.01718
N          3.72242        1.46261        0.61553
C          3.44007        2.63794        1.45480
C          2.31064        3.46196        0.83637
O          2.63732        3.84964       -0.49961
C          2.86567        2.70918       -1.31389
C          4.01016        1.83623       -0.77667
S          3.86720       -1.17939        0.02865
C          5.66719       -0.94559       -0.29551
C          6.23583       -2.33739       -0.58815
C          7.77605       -2.39174       -0.54512
C          8.42725       -3.69514        0.00582
C          9.90182       -3.68640       -0.48591
C         10.79311       -4.89088       -0.17970
O         12.10974       -4.52311       -0.53963
C         13.01960       -5.60289       -0.57898
C         14.23705       -5.21614       -1.42407
C         14.08397       -5.25903       -2.98889
C         13.05849       -4.33584       -3.74490
C         13.27415       -2.79576       -3.63273
F         12.48853       -2.19713       -4.57200
F         12.87418       -2.35297       -2.40752
F         13.18688       -4.65703       -5.06139
F         11.78588       -4.65875       -3.36174
F         15.30877       -4.97867       -3.51694
F         13.75177       -6.54313       -3.31505
F         14.70560       -3.98551       -1.06812
F         15.21577       -6.13310       -1.14040
C          7.66487       -4.97774       -0.42471
C          7.92154       -6.02507        0.65284
N          8.04017       -5.21273        1.93129
C          8.41889       -3.75356        1.59239
C          7.52558       -2.81950        2.37564
C          8.07942       -1.63703        2.88543
C          7.27516       -0.71189        3.55627
C          5.91213       -0.96260        3.73162
C          5.35368       -2.14953        3.24986
C          6.15830       -3.07189        2.58018
H          4.35898        3.24449        1.50120
H          3.16510        2.28694        2.45659
H          2.15862        4.39024        1.40190
H          1.37244        2.87611        0.84999
H          3.11923        3.08157       -2.31576
H          1.94712        2.09374       -1.38486
H          4.96200        2.39000       -0.81227
H          4.08805        0.93062       -1.38715
H          6.11071       -0.52917        0.61932
H          5.85598       -0.24980       -1.12467
H          5.87389       -2.68664       -1.56735
H          5.80030       -3.01834        0.15415
H          8.16006       -1.55193        0.05384
H          8.17007       -2.23143       -1.55834
H         10.39920       -2.79438       -0.07161
H          9.90239       -3.55182       -1.57669
H         10.48251       -5.77877       -0.76530
H         10.77052       -5.17705        0.89711
H         12.56723       -6.50921       -1.01934
H         13.40393       -5.85447        0.42654
H         14.32537       -2.51648       -3.80324
H          7.98926       -5.33782       -1.40946
H          6.58759       -4.78089       -0.49373
H          8.86631       -6.56229        0.51955
H          7.11590       -6.75755        0.77813
H          8.71973       -5.62339        2.58091
H          7.13931       -5.17927        2.43150
H          9.44906       -3.61873        1.94660
H          9.14509       -1.43698        2.75494
H          7.71952        0.20393        3.94687
H          5.27481       -0.23679        4.23623
H          4.28451       -2.32961        3.35763
H          5.66978       -3.96644        2.17671
