85

C          0.64026       -0.66307       -0.70965
C          2.16876       -0.57991       -0.70308
C          2.70905        0.71820       -1.31334
C          4.23767        0.81486       -1.30363
C          4.77724        2.11107       -1.91686
C          6.30524        2.21378       -1.88627
C          6.85005        3.50502       -2.50477
C          8.37728        3.61052       -2.45327
C          8.92828        4.89637       -3.07723
C         10.45445        5.00365       -3.00657
C         11.01280        6.28336       -3.63667
C         12.53868        6.38464       -3.55231
C         13.10950        7.65319       -4.19382
C         14.63567        7.73957       -4.09829
C         15.22494        8.98265       -4.77301
C         16.75205        9.04282       -4.67312
C         17.38237       10.28937       -5.34337
C         18.90690       10.29628       -5.22033
N         19.50465        9.21904       -6.10605
C         21.00431        9.06568       -5.94395
C         21.37213        8.39227       -4.62236
C         22.86643        8.03814       -4.52812
C         23.78493        9.25628       -4.37434
S         25.50700        8.70567       -4.31175
O         25.72449        7.97022       -3.08441
O         25.83135        8.15509       -5.60247
O         26.26659       10.13363       -4.19026
C         19.09434        9.44035       -7.54271
C         17.56093        9.49202       -7.64385
N         17.05685       10.51826       -6.75580
N         17.09055        9.80175       -9.01385
O         17.86577       10.91760       -9.46986
O         17.50902        8.65895       -9.77810
H          0.28451       -1.60282       -0.26504
H          0.24161       -0.60859       -1.73381
H          0.19313        0.16438       -0.13850
H          2.58785       -1.44040       -1.25195
H          2.53876       -0.67468        0.33208
H          2.28559        1.58004       -0.76742
H          2.34313        0.81172       -2.35135
H          4.66182       -0.04875       -1.84593
H          4.60153        0.72497       -0.26468
H          4.34334        2.97526       -1.38339
H          4.42587        2.19511       -2.96051
H          6.74005        1.34598       -2.41315
H          6.65383        2.13578       -0.84120
H          6.40721        4.37368       -1.98620
H          6.51364        3.57785       -3.55414
H          8.82083        2.73818       -2.96515
H          8.71110        3.54369       -1.40265
H          8.47756        5.76948       -2.57333
H          8.60592        4.95800       -4.13170
H         10.90527        4.12659       -3.50384
H         10.77472        4.94801       -1.95114
H         10.56025        7.16193       -3.14438
H         10.70058        6.33627       -4.69462
H         12.98966        5.49939       -4.03467
H         12.84852        6.34098       -2.49337
H         12.66162        8.54160       -3.71581
H         12.80619        7.69458       -5.25488
H         15.07981        6.83652       -4.55400
H         14.93771        7.72246       -3.03680
H         14.79492        9.89329       -4.32141
H         14.91621        8.98993       -5.83294
H         17.15904        8.10423       -5.09781
H         17.05020        9.04048       -3.61133
H         17.03336       11.17904       -4.79466
H         19.22749       10.09713       -4.19183
H         19.32982       11.24760       -5.56769
H         19.08511        8.32593       -5.80260
H         21.43230       10.07122       -6.05393
H         21.34338        8.45730       -6.79417
H         20.79689        7.45504       -4.53069
H         21.08979        9.02410       -3.76613
H         23.16933        7.45850       -5.41383
H         23.00651        7.37793       -3.66091
H         23.59211        9.80694       -3.44292
H         23.73734        9.95362       -5.22239
H         26.66632       10.17775       -3.29986
H         19.50107        8.61820       -8.14279
H         19.52695       10.39446       -7.86653
H         17.14964        8.47874       -7.46200
H         16.05229       10.63251       -6.89504
H         17.20714       11.46655       -9.92906
H         16.82414        8.59012      -10.46599
