92

C          0.54607       -0.05090        0.37649
C          2.07186       -0.00364        0.27278
C          2.63228       -0.92633       -0.81382
C          4.15844       -0.88342       -0.92742
C          4.72016       -1.80406       -2.01440
C          6.24587       -1.75187       -2.13045
C          6.81041       -2.66780       -3.21959
C          8.33502       -2.60420       -3.34000
C          8.90390       -3.51880       -4.42779
C         10.42821       -3.44639       -4.54498
C         11.00499       -4.35975       -5.62912
C         12.52944       -4.28133       -5.73789
C         13.11280       -5.18928       -6.82290
C         14.63818       -5.11406       -6.91616
C         15.23079       -6.03560       -7.98617
C         16.76221       -5.98515       -8.01882
C         17.42955       -6.80309       -9.14518
C         16.99064       -8.28445       -9.16872
C         17.52717       -9.06467       -7.97297
N         19.04505       -8.95374       -7.98324
C         19.54844       -7.53450       -7.92903
C         18.97989       -6.74378       -9.11360
C         19.54318       -5.31738       -9.14741
C         21.03169       -5.26058       -9.52099
O         21.65610       -6.30523       -9.69711
C         21.68100       -3.92860       -9.65891
C         20.97436       -2.72012       -9.50535
C         21.62922       -1.49760       -9.65138
C         22.99557       -1.46865       -9.94768
C         23.70831       -2.66486      -10.09980
C         23.05715       -3.88639       -9.95786
C         17.12678      -10.54157       -7.90756
C         17.49120      -11.20431       -6.56977
C         17.13005      -12.69258       -6.48362
O         18.11195      -13.45165       -7.20241
O         18.90911      -11.06415       -6.30634
H          0.17302        0.62072        1.16196
H          0.19518       -1.06674        0.61234
H          0.07384        0.24933       -0.57085
H          2.51756       -0.27661        1.24431
H          2.39691        1.03107        0.07098
H          2.18592       -0.65508       -1.78700
H          2.30966       -1.96331       -0.61246
H          4.60449       -1.15453        0.04580
H          4.47946        0.15399       -1.12822
H          4.27152       -1.53611       -2.98723
H          4.40486       -2.84286       -1.81193
H          6.69549       -2.02131       -1.15844
H          6.56018       -0.71236       -2.33081
H          6.35681       -2.40244       -4.19083
H          6.50330       -3.70901       -3.01676
H          8.78944       -2.86770       -2.36859
H          8.64101       -1.56296       -3.54407
H          8.45004       -3.25753       -5.39988
H          8.60251       -4.56130       -4.22320
H         10.88156       -3.70493       -3.57176
H         10.72854       -2.40394       -4.75076
H         10.55529       -4.10090       -6.60367
H         10.70662       -5.40331       -5.42511
H         12.97856       -4.54314       -4.76356
H         12.82788       -3.23742       -5.93775
H         12.67202       -4.92459       -7.79962
H         12.81023       -6.23326       -6.62608
H         15.07507       -5.36978       -5.93432
H         14.94351       -4.07346       -7.12072
H         14.83014       -5.75981       -8.97697
H         14.88084       -7.06407       -7.79178
H         17.14377       -6.29183       -7.02872
H         17.06874       -4.93363       -8.13161
H         17.11118       -6.36135      -10.10441
H         17.34341       -8.76391      -10.09887
H         15.89595       -8.36735       -9.17733
H         17.22348       -8.57083       -7.03555
H         19.39021       -9.38255       -8.85459
H         19.38104       -9.57310       -7.20455
H         20.64291       -7.57165       -7.97881
H         19.24046       -7.12491       -6.95744
H         19.35441       -7.24488      -10.02540
H         19.40221       -4.80017       -8.18446
H         18.97684       -4.72482       -9.88421
H         19.90801       -2.72295       -9.27642
H         21.07405       -0.56612       -9.53590
H         23.50678       -0.51177      -10.06104
H         24.77435       -2.63951      -10.32873
H         23.59418       -4.82829      -10.07435
H         17.57785      -11.09779       -8.74794
H         16.03541      -10.59308       -8.04371
H         16.97493      -10.67085       -5.75423
H         16.11018      -12.87347       -6.85409
H         17.17730      -13.01087       -5.43177
H         17.72267      -13.83146       -8.00311
H         19.31364      -11.89730       -6.62732
