42

C          4.99774        1.26953        0.23217
C          4.29325        0.24322       -0.63199
O          4.87352       -1.10026       -0.43833
C          4.35088       -1.84825        0.54279
O          3.44766       -1.54946        1.29090
C          5.07535       -3.20415        0.64121
S          4.80854       -4.02182       -0.99848
C          5.22792       -5.80499       -0.59856
C          4.36578       -6.66077       -1.52915
O          4.16402       -6.36390       -2.69146
O          3.93845       -7.75312       -0.89308
C          3.16694       -8.72868       -1.69176
C          1.69095       -8.38326       -1.69223
C          6.71215       -6.04724       -0.91053
N          3.19254       -3.81889       -1.21716
C          2.76149       -3.55903       -2.60369
C          2.19152       -4.41897       -0.32475
C          6.56126       -3.06831        0.98680
H          4.59479        2.26580        0.00349
H          6.07629        1.28710        0.02963
H          4.83181        1.07809        1.29977
H          4.44349        0.43094       -1.70157
H          3.22042        0.18111       -0.41012
H          4.54331       -3.79371        1.39919
H          4.98325       -5.98922        0.45598
H          3.36833       -9.67923       -1.18529
H          3.59013       -8.74781       -2.70382
H          1.30216       -8.29591       -0.66905
H          1.13565       -9.18770       -2.19363
H          1.49287       -7.45350       -2.24126
H          6.91707       -5.88156       -1.97564
H          6.95087       -7.09196       -0.66890
H          7.37646       -5.41019       -0.31717
H          3.58181       -3.09259       -3.16038
H          1.91802       -2.85693       -2.56384
H          2.46132       -4.48239       -3.11851
H          2.57301       -4.49693        0.69888
H          1.87714       -5.41320       -0.67795
H          1.31888       -3.75347       -0.30149
H          7.13621       -2.62077        0.16708
H          7.00439       -4.03009        1.26836
H          6.64647       -2.40682        1.85959
