63

C         12.93092        2.39671       -2.34439
C         11.87793        1.91138       -1.34605
C         12.35213        0.71045       -0.52028
C         11.29988        0.21188        0.47981
C         11.82063       -0.97929        1.26653
O         10.85584       -1.42196        2.29025
C          9.96557       -2.34550        1.92034
O          9.87459       -2.85245        0.81664
C          9.04991       -2.72644        3.10032
C          9.43320       -4.04322        3.72521
C         10.15550       -4.07644        4.91443
C         10.48836       -5.28461        5.54948
C         11.22940       -5.30845        6.85156
C         10.35030       -4.84997        8.04914
N         10.03911       -3.42425        7.96300
C         10.04591       -6.46778        4.93680
C          9.34783       -6.41057        3.74876
N          9.07555       -5.22842        3.13602
C          8.28039       -5.28326        1.89488
C          6.78060       -5.47339        2.25777
O          6.47448       -5.75218        3.41892
N          5.88538       -5.34632        1.24762
C          4.46717       -5.64008        1.55380
C          3.71294       -4.48261        2.21746
C          3.59646       -3.20741        1.37600
C          2.79814       -2.11060        2.08485
C          6.23011       -5.11355       -0.15351
H         12.56622        3.25510       -2.92378
H         13.19948        1.60344       -3.05741
H         13.85273        2.70848       -1.83183
H         10.95470        1.63860       -1.88380
H         11.60390        2.73421       -0.66520
H         13.27420        0.98411        0.02129
H         12.62947       -0.11172       -1.20228
H         10.38296       -0.07702       -0.05742
H         11.03125        1.02054        1.17787
H         12.71177       -0.71939        1.85177
H         12.04056       -1.83352        0.61296
H          8.01572       -2.75222        2.73132
H          9.11719       -1.95478        3.87429
H         10.43922       -3.13233        5.37528
H         12.10594       -4.64429        6.79540
H         11.59871       -6.32359        7.05185
H         10.88699       -5.13661        8.97050
H          9.40729       -5.41542        8.04179
H         10.79620       -2.86025        8.35098
H          9.20049       -3.19895        8.49625
H         10.24882       -7.44257        5.37950
H          8.99265       -7.30093        3.23494
H          8.63617       -6.14583        1.31469
H          8.49988       -4.39113        1.29897
H          4.44616       -6.51678        2.21568
H          3.99223       -5.91739        0.60156
H          4.18975       -4.25800        3.18419
H          2.70293       -4.85579        2.45513
H          3.11726       -3.44562        0.41106
H          4.60340       -2.82516        1.13591
H          1.77594       -2.44744        2.30948
H          2.72235       -1.20571        1.46762
H          3.26928       -1.82835        3.03792
H          7.24401       -4.71499       -0.26236
H          5.53703       -4.37998       -0.58427
H          6.15497       -6.04467       -0.73765
