74

C          4.30316       -2.41499       -8.54618
C          5.39099       -1.89332       -7.60596
C          4.79848       -1.22557       -6.36158
C          5.82647       -0.65335       -5.42578
O          6.98827       -0.39731       -5.72077
O          5.31342       -0.43213       -4.18432
C          6.08468        0.34476       -3.23602
C          6.73771       -0.52215       -2.14949
C          8.04683       -1.14498       -2.51545
N          8.62029       -1.13769       -3.71394
N          9.83794       -1.72659       -3.71061
C         10.04386       -2.11072       -2.46341
N          8.92710       -1.77001       -1.68755
C          8.62131       -2.08762       -0.27458
C          7.64870       -3.26155       -0.13375
C          7.32104       -3.56921        1.33188
N          6.26436       -4.56840        1.39695
C          5.82328       -4.86271        2.77419
C          4.75000       -5.92373        2.80615
C          3.42921       -5.62229        3.15775
C          2.43946       -6.60670        3.21351
C          2.76793       -7.92917        2.90909
C          4.07578       -8.25770        2.54834
C          5.05567       -7.26223        2.49708
O          6.35964       -7.54325        2.13810
C         11.34522       -2.74604       -2.01162
C         11.13941       -4.19984       -1.48143
C         10.32724       -5.23543       -2.29185
C         11.01798       -5.74490       -3.56595
C         10.00985       -6.42861       -1.37554
C         12.33039       -2.73231       -3.21405
O         12.77825       -1.40282       -3.46550
C         12.00506       -1.90053       -0.88977
H          4.74794       -2.88992       -9.42976
H          3.65380       -1.60004       -8.89775
H          3.66528       -3.16211       -8.05227
H          6.03391       -1.17196       -8.12990
H          6.04771       -2.72068       -7.29452
H          4.15240       -1.91067       -5.79115
H          4.14057       -0.38536       -6.64957
H          5.34682        0.99665       -2.75404
H          6.81620        0.96755       -3.76893
H          6.02247       -1.29691       -1.83126
H          6.90267        0.11703       -1.26593
H          8.17459       -0.76909       -4.58989
H          8.20993       -1.17583        0.18385
H          9.57070       -2.29633        0.22601
H          8.08175       -4.15149       -0.61591
H          6.70269       -3.04906       -0.65318
H          6.95120       -2.65434        1.82779
H          8.25098       -3.85941        1.87221
H          6.59234       -5.44360        0.98110
H          5.41956       -3.93293        3.20410
H          6.67186       -5.17790        3.41737
H          3.17801       -4.58773        3.40196
H          1.42105       -6.34260        3.49700
H          2.00924       -8.71115        2.95073
H          4.34024       -9.29078        2.30648
H          6.44811       -8.50340        2.02211
H         10.67698       -4.12157       -0.48398
H         12.14833       -4.60564       -1.29447
H          9.36724       -4.77351       -2.58902
H         12.02543       -6.12658       -3.34084
H         11.11167       -4.97661       -4.34258
H         10.44388       -6.57375       -4.00244
H         10.93667       -6.92899       -1.05543
H          9.39558       -7.17353       -1.89879
H          9.47198       -6.12218       -0.46628
H         11.86205       -3.16067       -4.10810
H         13.18433       -3.37252       -2.92852
H         12.87508       -1.28677       -4.42150
H         11.44772       -1.93537        0.05419
H         12.12903       -0.85669       -1.19805
H         13.00477       -2.30871       -0.68828
