65

C          2.85387        2.20457        0.78864
C          4.06154        1.26869        0.67022
C          3.71297       -0.12587        1.16410
O          4.82830       -1.06381        0.94615
C          5.66549       -1.26775        1.96818
O          5.59950       -0.77887        3.07685
C          6.78295       -2.25672        1.55487
C          6.95229       -3.29553        2.61707
C          6.43549       -4.59717        2.45376
N          6.47164       -5.53319        3.38897
N          7.04436       -5.22984        4.55818
C          7.60461       -4.02093        4.83557
C          7.55294       -3.03175        3.84468
C          8.29177       -3.76705        6.15028
C          9.77983       -4.15751        6.12652
O         10.39267       -3.41621        5.08596
C         11.77622       -3.68452        4.93639
C         12.25327       -2.96863        3.67649
F         12.06550       -1.63124        3.75430
F         13.57172       -3.20265        3.49467
F         11.59163       -3.40878        2.57385
C          6.96102       -6.33787        5.55330
C          5.76035       -6.20754        6.49540
C          4.38553       -6.41636        5.85457
S          4.11405       -8.06257        5.13716
C          3.62416       -9.02747        6.58690
S          3.72162       -8.41821        8.13773
N          3.19175      -10.26895        6.27793
C          3.03464      -10.77035        4.90250
C          4.22826      -11.59504        4.41659
C          2.81868      -11.21663        7.34595
C          1.34669      -11.11353        7.74310
H          3.10930        3.21104        0.43514
H          2.51315        2.29360        1.82993
H          2.00720        1.84556        0.18565
H          4.90494        1.66141        1.25837
H          4.39233        1.20660       -0.37756
H          2.88899       -0.56466        0.58656
H          3.46219       -0.13104        2.23309
H          7.70129       -1.65873        1.45124
H          6.54770       -2.70541        0.58337
H          5.95798       -4.91083        1.52291
H          7.99166       -2.05872        4.05950
H          7.79763       -4.29140        6.97685
H          8.22227       -2.69084        6.35883
H          9.90862       -5.24398        5.95406
H         10.22403       -3.91671        7.10958
H         11.97465       -4.76347        4.80799
H         12.36415       -3.30797        5.79192
H          7.90321       -6.35834        6.11124
H          6.88222       -7.25442        4.95612
H          5.76932       -5.22757        7.00076
H          5.88059       -6.96484        7.28700
H          4.19379       -5.72264        5.02350
H          3.61166       -6.27132        6.62120
H          2.85052       -9.91671        4.23567
H          2.11806      -11.37889        4.88914
H          5.14573      -10.99239        4.39957
H          4.03721      -11.96002        3.39842
H          4.40088      -12.46914        5.05867
H          3.46304      -11.01035        8.21021
H          3.05291      -12.22375        6.97141
H          1.12722      -10.12014        8.15350
H          1.12104      -11.86232        8.51431
H          0.67987      -11.29901        6.88959
