104

C          0.78796       -0.73560       -0.19139
C          2.29672       -0.47906       -0.23232
C          2.79640        0.40171        0.91874
C          4.30857        0.64565        0.89415
C          4.81367        1.52211        2.04509
C          6.32939        1.74338        2.02493
C          6.84513        2.61022        3.17811
C          8.36515        2.80240        3.16552
C          8.88966        3.65393        4.32587
C         10.41407        3.80762        4.33510
C         10.94026        4.62964        5.51575
C         12.46768        4.74042        5.55740
C         12.99071        5.50599        6.77690
C         14.51926        5.57767        6.84867
C         15.03559        6.28277        8.10715
C         16.56416        6.31311        8.20514
C         17.06750        6.98560        9.48527
C         18.60972        6.96968        9.60025
C         19.08347        7.64611       10.85310
C         19.18166        9.06932       10.89150
C         19.59033        9.72550       12.02478
C         19.91860        8.98010       13.19090
C         19.81188        7.54120       13.18453
C         19.39249        6.91200       11.99107
C         20.14384        6.81683       14.37623
C         20.02578        5.31235       14.42430
O         21.00305        4.76044       13.55985
C         20.98097        3.32126       13.55243
C         21.98431        2.83667       12.52594
C         20.58597        7.51344       15.48311
N         20.67233        8.87977       15.42905
C         20.35860        9.61044       14.35610
C         21.02388        6.92644       16.80968
O         21.39618        8.00377       17.64195
C         21.86256        7.61131       18.95319
C         22.12922        8.86514       19.76662
C         22.62564        8.54870       21.18386
C         22.84672        9.80585       22.03295
C         23.32822        9.50530       23.45686
C         23.51788       10.76458       24.30592
H          0.46229       -1.36657       -1.03006
H          0.22081        0.20581       -0.24435
H          0.49485       -1.24398        0.73947
H          2.56495       -0.00641       -1.19252
H          2.83510       -1.44189       -0.21092
H          2.51765       -0.06471        1.88048
H          2.26784        1.37117        0.89125
H          4.58752        1.11142       -0.06761
H          4.83359       -0.32571        0.92036
H          4.52583        1.06201        3.00699
H          4.29996        2.49917        2.01383
H          6.61835        2.20526        1.06425
H          6.83913        0.76392        2.05181
H          6.54431        2.15516        4.13858
H          6.35024        3.59693        3.14519
H          8.66766        3.26248        2.20828
H          8.85556        1.81311        3.19117
H          8.56567        3.20449        5.28144
H          8.42033        4.65290        4.28957
H         10.74247        4.27181        3.38853
H         10.87891        2.80596        4.35576
H         10.58555        4.17594        6.45831
H         10.49928        5.64156        5.48505
H         12.82756        5.22741        4.63417
H         12.90465        3.72614        5.55274
H         12.60822        5.02605        7.69522
H         12.57450        6.52869        6.77634
H         14.90769        6.09215        5.95244
H         14.93248        4.55427        6.81171
H         14.62483        5.77769        8.99911
H         14.64470        7.31484        8.13746
H         16.98211        6.83552        7.32749
H         16.95394        5.28137        8.15808
H         16.64071        6.48050       10.36793
H         16.70793        8.02761        9.52640
H         19.04217        7.47558        8.72234
H         18.96582        5.92898        9.58153
H         18.93526        9.63804        9.99340
H         19.67567       10.81295       12.04331
H         19.34520        5.82452       11.95125
H         19.00299        5.01217       14.11453
H         20.15936        4.94005       15.45685
H         19.95902        2.97152       13.31018
H         21.22927        2.94834       14.56449
H         21.71070        3.17745       11.51848
H         22.01493        1.73904       12.52028
H         22.99190        3.20698       12.75658
H         21.01133        9.30617       16.30209
H         20.46962       10.69074       14.44266
H         21.87035        6.23145       16.64454
H         20.19721        6.34450       17.26121
H         22.77765        7.00229       18.83822
H         21.08953        6.98356       19.43241
H         21.20027        9.45601       19.82159
H         22.87288        9.48467       19.23916
H         23.56640        7.97464       21.12643
H         21.89742        7.89202       21.69071
H         21.90573       10.38166       22.08139
H         23.57828       10.46347       21.53133
H         24.27701        8.94476       23.40885
H         22.60495        8.83358       23.94941
H         24.26169       11.44084       23.85929
H         23.86248       10.51696       25.31865
H         22.57707       11.32625       24.40415
