79

C          0.20859        1.27743        1.01127
C          1.73222        1.15686        1.09841
C          2.47327        2.14859        0.19397
C          3.99865        2.02788        0.27036
C          4.73908        3.06439       -0.58152
C          6.26313        2.91225       -0.54185
C          7.00127        3.96098       -1.37965
C          8.52068        3.75907       -1.40627
C          9.23580        4.80561       -2.26982
C         10.75450        4.65925       -2.32020
O         11.30052        5.67433       -3.15933
C         12.69270        5.90227       -2.90959
C         13.13933        7.06490       -3.78906
C         14.58416        7.53352       -3.56715
C         14.89005        8.83209       -4.32411
C         16.32735        9.33071       -4.14479
C         16.59957       10.65014       -4.87548
C         18.02799       11.17598       -4.69487
C         18.27954       12.49545       -5.42922
C         13.48619        4.62046       -3.18006
N         12.85731        3.44290       -2.46826
C         11.34822        3.28686       -2.71740
C         11.15833        2.71863       -4.15534
C         11.61682        1.24856       -4.19532
O         10.94783        0.31711       -4.56063
O         12.91637        1.11180       -3.75337
C         13.45718       -0.26185       -3.73148
C         14.73289       -0.24601       -2.92045
C          9.74481        2.81983       -4.73761
H         -0.29063        0.56606        1.68325
H         -0.15088        1.07731       -0.00886
H         -0.12876        2.28758        1.28761
H          2.03660        0.12903        0.83658
H          2.05570        1.31015        2.14199
H          2.17416        3.17734        0.46233
H          2.14717        2.00387       -0.85115
H          4.30016        1.01303       -0.04437
H          4.32046        2.12546        1.32232
H          4.46327        4.07841       -0.24350
H          4.39474        2.99148       -1.62814
H          6.53566        1.90278       -0.89800
H          6.61085        2.96805        0.50468
H          6.77258        4.96999       -0.99641
H          6.61915        3.93691       -2.41505
H          8.72691        2.74078       -1.77945
H          8.91509        3.79140       -0.37511
H          9.04761        5.81073       -1.86221
H          8.82335        4.81303       -3.28594
H         11.12017        4.82878       -1.27981
H         12.81641        6.17678       -1.83956
H         12.44515        7.89330       -3.58056
H         12.98091        6.78948       -4.84499
H         15.29927        6.75605       -3.88875
H         14.76274        7.69110       -2.48885
H         14.18747        9.61390       -3.98801
H         14.68473        8.68357       -5.39842
H         17.03238        8.56020       -4.50395
H         16.53937        9.45840       -3.06866
H         15.88473       11.41403       -4.52201
H         16.39239       10.52046       -5.95242
H         18.74388       10.41437       -5.04795
H         18.23282       11.30753       -3.61879
H         18.12707       12.38544       -6.51318
H         19.30582       12.85340       -5.27365
H         17.59702       13.28383       -5.07892
H         14.52210        4.69442       -2.82532
H         13.50016        4.38563       -4.25150
H         13.00824        3.54026       -1.45628
H         13.29151        2.54624       -2.78632
H         11.01621        2.53824       -1.98164
H         11.82963        3.27280       -4.83193
H         13.62467       -0.56061       -4.77490
H         12.68770       -0.91697       -3.30451
H         15.48335        0.42974       -3.35239
H         15.16492       -1.25558       -2.90962
H         14.54589        0.04069       -1.87569
H          8.98761        2.38640       -4.07371
H          9.70914        2.25806       -5.67727
H          9.48843        3.86109       -4.95389
