58

C          0.90827       -1.92240        0.59079
C          2.36548       -1.50819        0.61118
O          3.00040       -2.00409       -0.57797
C          4.36398       -1.66687       -0.65442
C          4.90337       -2.19703       -1.98523
C          6.42929       -2.12139       -2.09498
C          6.89242       -1.68482       -3.49639
N          8.32689       -1.62681       -3.68306
C          8.98219       -2.86452       -3.31053
C          8.64649       -3.43114       -1.91055
N          7.10443       -3.48137       -1.79447
C          6.60908       -4.16768       -0.53842
C          7.10816       -5.60025       -0.40525
C          6.40376       -6.31377        0.75261
C          7.01035       -7.69998        0.98427
O          7.98202       -8.10695        0.39580
O          6.39549       -8.46983        1.91809
C          9.36464       -2.80021       -0.69481
C          9.11330       -1.34820       -0.34434
C          8.22150       -1.00117        0.67973
C          7.93871        0.33437        0.97384
C          8.55203        1.37726        0.26522
C          9.48210        1.02862       -0.72949
C          9.76380       -0.30534       -1.02306
C          8.26635        2.81930        0.58988
H          0.40539       -1.57150        1.50132
H          0.81169       -3.01518        0.54530
H          0.39047       -1.49163       -0.27551
H          2.88497       -1.91947        1.49916
H          2.46637       -0.40706        0.64796
H          4.92145       -2.09217        0.20746
H          4.51369       -0.56857       -0.60489
H          4.46640       -1.60311       -2.80159
H          4.52780       -3.22022       -2.15193
H          6.83784       -1.43305       -1.34411
H          6.45868       -0.69593       -3.69718
H          6.45921       -2.37341       -4.24876
H          8.72762       -0.82462       -3.19788
H         10.07173       -2.74356       -3.38024
H          8.71162       -3.63259       -4.05911
H          8.94029       -4.49131       -1.91986
H          6.81310       -4.09426       -2.57383
H          5.51502       -4.15125       -0.59506
H          6.90923       -3.54436        0.31102
H          8.19096       -5.64661       -0.22886
H          6.92303       -6.16123       -1.33634
H          5.32282       -6.41393        0.55947
H          6.50290       -5.73677        1.68825
H          5.62501       -8.01435        2.30150
H         10.43408       -2.94599       -0.91530
H          9.17273       -3.42285        0.19165
H          7.74217       -1.78353        1.27365
H          7.23848        0.56971        1.77770
H         10.00607        1.81710       -1.27309
H         10.52057       -0.53517       -1.77771
H          9.09130        3.25723        1.17222
H          7.35018        2.92617        1.18358
H          8.16023        3.42337       -0.32119
