87

C          0.31913       -0.41988        0.16932
C          1.82109       -0.40378        0.46599
C          2.42210        1.00606        0.49466
C          3.92606        1.02852        0.78692
C          4.52930        2.43666        0.82186
C          6.03548        2.45106        1.10352
C          6.64736        3.85562        1.13728
C          8.15572        3.85763        1.40776
C          8.78263        5.25593        1.42977
C         10.29248        5.23981        1.69134
C         10.93968        6.62918        1.69779
C         12.44855        6.59010        1.96354
C         13.12292        7.96585        1.93326
C         14.62708        7.89929        2.22477
C         15.31303        9.26384        2.13546
C         16.79626        9.30879        2.40923
C         17.49124       10.53347        2.20034
C         18.84471       10.69394        2.43166
C         19.49448       12.02505        2.16630
C         19.97818       12.77647        3.43367
O         20.29521       12.14231        4.43507
C         20.08844       14.25779        3.38371
C         19.93375       15.00294        2.19883
C         20.09381       16.38803        2.21454
C         20.39203       17.04397        3.41266
C         20.54189       16.31242        4.59741
C         20.39913       14.92914        4.58336
C         19.57113        9.56188        2.92594
C         18.89014        8.31233        3.13250
C         17.51267        8.20884        2.86120
C         19.64723        7.21861        3.63841
C         20.97039        7.36372        3.93615
N         21.60092        8.57359        3.73366
C         20.93501        9.62782        3.24005
C         23.04251        8.68577        4.06685
C         23.97996        8.03735        3.03179
C         24.26951        8.81858        1.76387
Br        22.73253        8.82597        0.51563
Br        25.72375        7.84759        3.94820
H         -0.08028       -1.44338        0.16170
H          0.10068        0.02892       -0.81130
H         -0.24341        0.15007        0.92382
H          2.35215       -1.00849       -0.28874
H          2.01071       -0.89761        1.43417
H          1.89296        1.61164        1.25175
H          2.23084        1.50251       -0.47334
H          4.45327        0.42559        0.02643
H          4.11701        0.52685        1.75221
H          4.00848        3.03806        1.58783
H          4.33353        2.94162       -0.14069
H          6.55386        1.84774        0.33725
H          6.23083        1.94516        2.06571
H          6.13633        4.45907        1.90812
H          6.44836        4.36316        0.17691
H          8.66235        3.24554        0.64054
H          8.35334        3.35503        2.37112
H          8.28364        5.86951        2.20035
H          8.58382        5.76026        0.46773
H         10.78603        4.61428        0.92657
H         10.48864        4.74240        2.65777
H         10.44941        7.25970        2.46011
H         10.75127        7.12448        0.72911
H         12.93127        5.93488        1.21699
H         12.63184        6.11578        2.94393
H         12.63702        8.63254        2.66674
H         12.96040        8.43152        0.94559
H         15.10178        7.20012        1.51474
H         14.77371        7.46931        3.23037
H         14.82740        9.97044        2.83377
H         15.14107        9.70132        1.13606
H         16.91989       11.38860        1.83038
H         18.79306       12.65507        1.60720
H         20.37874       11.90782        1.51348
H         19.70457       14.51202        1.25291
H         19.98487       16.95739        1.29134
H         20.50592       18.12869        3.42469
H         20.77285       16.82570        5.53101
H         20.51880       14.34188        5.49363
H         17.01633        7.25230        3.02333
H         19.16709        6.25645        3.81418
H         21.58484        6.56827        4.35192
H         21.51299       10.53857        3.12447
H         23.18344        8.19805        5.03868
H         23.27651        9.75067        4.18978
H         23.67117        7.01017        2.80130
H         25.07928        8.35553        1.19502
H         24.50985        9.86821        1.96568
