48

C          6.77814        1.90093       -4.28638
C          6.43879        2.80103       -3.09707
C          6.89230        2.22265       -1.75227
C          6.56725        3.13340       -0.56472
C          7.03282        2.57349        0.78503
C          6.73727        3.53269        1.94182
C          7.14543        3.04536        3.33917
N          8.61866        2.84957        3.46545
C          9.53977        3.85799        3.69331
C          9.20099        5.30107        3.96677
O          8.38952        5.44079        5.11213
C          9.11525        5.36753        6.36331
C          8.14446        5.63663        7.49917
C          8.83809        5.57774        8.86297
N         10.77280        3.37218        3.70106
N         10.61030        2.05634        3.46440
C          9.32301        1.69982        3.32262
C          8.82327        0.28348        3.13010
O          7.62884        0.06931        3.16286
C          9.87431       -0.77562        2.93047
H          6.44503        2.34777       -5.23236
H          6.29319        0.91812       -4.19456
H          7.86225        1.73126       -4.36271
H          5.35123        2.97913       -3.06553
H          6.90457        3.79076       -3.23848
H          7.98101        2.03774       -1.78574
H          6.41935        1.23673       -1.60033
H          5.47928        3.31134       -0.52514
H          7.03136        4.12178       -0.72782
H          8.11870        2.37265        0.72359
H          6.54603        1.60292        0.97458
H          5.65251        3.71492        2.00525
H          7.19257        4.51600        1.73981
H          6.68335        2.08279        3.57789
H          6.88571        3.78167        4.10972
H          8.63913        5.71755        3.11717
H         10.15613        5.84834        4.04859
H          9.92803        6.11670        6.34797
H          9.57901        4.36843        6.47568
H          7.32799        4.89925        7.45517
H          7.68799        6.62587        7.34497
H          9.27349        4.58601        9.05359
H          8.12318        5.78535        9.66839
H          9.64564        6.31985        8.93727
H         11.42583        1.44725        3.42935
H         10.50276       -0.87670        3.83031
H         10.53130       -0.53344        2.08097
H          9.37709       -1.73251        2.74287
