70

N          2.48777        0.64748       -2.03300
C          1.81872       -0.66670       -2.00730
C          2.47022       -1.65915       -2.98331
C          4.00719       -1.69981       -2.94787
C          4.57705       -1.89623       -1.54106
N          6.05889       -1.91875       -1.51399
C          6.63157       -2.98714       -0.71033
C          6.53145       -2.77563        0.81495
C          7.22550       -3.85050        1.64522
C          7.08819       -3.71046        3.16867
C          7.67679       -4.91191        3.92046
C          7.46934       -4.85809        5.43731
C          7.98427       -6.11141        6.15451
C          7.68337       -6.12982        7.65641
C          8.15163       -7.41148        8.35568
C          7.80219       -7.45167        9.84520
N          7.14634       -1.40723        1.12022
C          6.58525       -0.27461        0.28488
C          6.72837       -0.65517       -1.19988
C          6.32308        0.52188       -2.09248
O          7.18511        1.60279       -1.71792
C          7.22955        2.65282       -2.64546
O          5.97574        3.30032       -2.68022
C          5.98997        4.52942       -3.42338
C          4.63769        5.18563       -3.20538
O          4.39407        5.45496       -1.82895
H          2.01708        1.28881       -1.39313
H          2.39801        1.06916       -2.96012
H          0.73760       -0.61802       -2.23343
H          1.89480       -1.04998       -0.97645
H          2.15979       -1.41483       -4.01182
H          2.05650       -2.65973       -2.77775
H          4.40075       -0.76476       -3.36809
H          4.37374       -2.50887       -3.59665
H          4.21671       -2.85658       -1.13897
H          4.17376       -1.11063       -0.87741
H          7.69695       -3.10706       -0.98215
H          6.13769       -3.93726       -0.95533
H          5.47611       -2.67625        1.11507
H          8.29119       -3.90788        1.35788
H          6.78824       -4.81301        1.33450
H          6.02111       -3.60430        3.43092
H          7.58988       -2.79252        3.53128
H          8.75361       -4.99455        3.69376
H          7.21308       -5.83260        3.52630
H          6.39299       -4.73583        5.65111
H          7.96547       -3.96289        5.85155
H          9.07243       -6.20593        5.99436
H          7.53219       -7.00347        5.68637
H          6.59612       -6.01054        7.80959
H          8.15369       -5.25531        8.13963
H          9.24207       -7.51796        8.22792
H          7.70250       -8.28249        7.84886
H          8.26731       -6.61622       10.38919
H          8.14673       -8.38373       10.31304
H          6.71545       -7.38409       10.00261
H          8.16193       -1.47217        0.94777
H          7.03955       -1.20823        2.12373
H          7.14666        0.63530        0.52901
H          5.53525       -0.14362        0.57889
H          7.80768       -0.81580       -1.38978
H          5.26294        0.79989       -1.96139
H          6.48882        0.24145       -3.14716
H          7.48728        2.26692       -3.65655
H          8.01986        3.33895       -2.29260
H          6.16006        4.33584       -4.49926
H          6.79880        5.18282       -3.04602
H          3.84450        4.54329       -3.63311
H          4.61035        6.15150       -3.72905
H          4.57191        4.62766       -1.35154
