79

C          1.12864        1.08085       -1.14577
C          2.62319        0.80767       -0.96037
C          3.44529        2.07579       -0.70357
C          4.94792        1.81045       -0.56833
C          5.76844        3.06377       -0.24809
C          7.27663        2.79806       -0.19084
C          8.09614        4.03899        0.18921
C          9.59198        3.75655        0.15353
O         10.39719        4.91450        0.50656
C         10.49940        5.16884        1.90352
C         11.20310        6.52234        2.02438
N         12.22295        6.63097        0.89691
C         11.94099        7.99112        0.19767
O         11.23084        8.69990        1.16216
C         10.32361        7.77062        1.77187
C          9.74856        8.37223        3.04634
O          8.98292        7.34005        3.62892
C          8.31433        7.71485        4.84840
C          7.52588        6.51107        5.33304
C          6.81338        6.74900        6.66916
C          6.01993        5.52222        7.13230
C          5.33215        5.70142        8.48846
C          4.54325        4.46452        8.92990
C          3.84336        4.62524       10.28338
C          3.05113        3.38433       10.70272
C         13.21427        8.69972       -0.21318
C         12.88921       10.02364       -0.92207
C         14.05824       10.88397       -1.28462
C         15.36304       10.59537       -1.35625
F         15.87873        9.38811       -1.09736
F         16.30018       11.46269       -1.69008
F         13.69438       12.15291       -1.60033
H          0.56708        0.15024       -1.30439
H          0.94593        1.73060       -2.01471
H          0.70023        1.58063       -0.26403
H          3.01788        0.29478       -1.85375
H          2.77030        0.10669       -0.12133
H          3.07473        2.57043        0.21172
H          3.27456        2.79457       -1.52439
H          5.32245        1.35759       -1.50307
H          5.11683        1.05607        0.22010
H          5.43294        3.48395        0.71616
H          5.56492        3.84103       -1.00494
H          7.61483        2.41966       -1.17094
H          7.47956        1.99014        0.53294
H          7.79448        4.37777        1.19449
H          7.87406        4.86613       -0.50462
H          9.91689        3.49568       -0.86309
H          9.86371        2.91986        0.82077
H         11.07883        4.37071        2.40331
H          9.51930        5.25066        2.39700
H         11.73095        6.62018        2.98104
H         12.00507        5.83658        0.25717
H         13.19045        6.57745        1.23195
H         11.30298        7.72274       -0.66551
H          9.50983        7.51409        1.06922
H          9.13552        9.25875        2.79872
H         10.57237        8.70355        3.71073
H          7.65118        8.57778        4.65122
H          9.06649        8.02961        5.59655
H          8.21702        5.65713        5.43099
H          6.79054        6.23568        4.55936
H          6.13432        7.61433        6.58124
H          7.55486        7.01926        7.44061
H          6.69721        4.65122        7.18155
H          5.26210        5.27182        6.36928
H          4.65460        6.57202        8.44452
H          6.08958        5.94625        9.25365
H          5.22316        3.59496        8.97294
H          3.79081        4.21914        8.15941
H          3.16881        5.49708       10.24078
H          4.59463        4.86304       11.05537
H          2.27686        3.13596        9.96153
H          2.54911        3.53429       11.66810
H          3.70606        2.50592       10.80238
H         13.78898        8.03469       -0.87454
H         13.82024        8.88824        0.68766
H         12.24747       10.63376       -0.26677
H         12.29656        9.82527       -1.83318
