65

C          7.65606        3.77480        2.36657
C          6.90417        2.71831        1.55255
C          7.61266        1.35862        1.54291
C          6.87187        0.25696        0.77424
N          6.69639        0.56188       -0.65359
C          7.62524        0.25663       -1.57961
O          8.68248       -0.34069       -1.35121
C          7.31337        0.67374       -3.02504
S          8.93923        0.72505       -3.85957
C          9.22552       -1.06472       -4.24193
C         10.67708       -1.45068       -3.96387
P         11.84701       -0.49084       -4.97707
O         11.42135        0.93991       -5.05277
O         13.30538       -0.74740       -4.39345
C         14.04862        0.28255       -3.65304
C         15.08467        0.92777       -4.54952
O         11.81908       -1.32122       -6.33594
C         12.63243       -0.90246       -7.48642
C         12.43156       -1.91718       -8.58960
C          8.46326        1.43099       -5.47301
C          8.52823        2.96208       -5.42086
O          8.12911        3.40607       -6.69134
Si         8.13925        5.03530       -7.17889
C          7.63970        4.96357       -8.97668
C          6.89710        5.98226       -6.13449
C          9.86379        5.74139       -6.94748
H          7.13292        4.74003        2.35085
H          8.66917        3.93796        1.97022
H          7.75800        3.46899        3.41762
H          6.78279        3.08248        0.51756
H          5.88469        2.59658        1.95701
H          7.74191        1.00164        2.57754
H          8.62759        1.46195        1.12582
H          5.86866        0.09238        1.19295
H          7.42441       -0.68923        0.83428
H          5.88846        1.10858       -0.93235
H          6.88183        1.68093       -3.11497
H          6.64715       -0.04266       -3.52688
H          8.93156       -1.21757       -5.28865
H          8.54599       -1.60864       -3.57718
H         10.80926       -2.52259       -4.16743
H         10.91673       -1.28056       -2.90468
H         14.50720       -0.25586       -2.81403
H         13.33619        1.02223       -3.26174
H         15.76229        0.17522       -4.97387
H         15.68660        1.63620       -3.96318
H         14.60658        1.48250       -5.36808
H         13.68270       -0.85652       -7.16202
H         12.30857        0.10515       -7.78641
H         12.74697       -2.91770       -8.26655
H         13.03529       -1.63299       -9.46240
H         11.38009       -1.96187       -8.90231
H          7.46553        1.07191       -5.75832
H          9.22073        1.05861       -6.17251
H          9.56215        3.26338       -5.17270
H          7.86238        3.35558       -4.62512
H          6.66350        4.47487       -9.09884
H          8.37835        4.40886       -9.57100
H          7.56336        5.97759       -9.39418
H          5.88676        5.56216       -6.23787
H          6.85471        7.03390       -6.45288
H          7.16517        5.97932       -5.06790
H         10.61664        5.14713       -7.48395
H         10.15627        5.79188       -5.88902
H          9.90366        6.76680       -7.34285
