50

C          4.51798        1.60445       -2.38817
C          4.08432        0.79189       -1.16624
C          4.83915       -0.53682       -1.02472
C          4.37214       -1.35622        0.18503
C          4.97161       -2.77246        0.28943
P          6.78157       -2.85877        0.43081
C          7.36515       -1.80972        1.79866
C          8.89572       -1.79800        1.82150
O          9.56029       -2.29206        0.92638
O          9.34415       -1.18994        2.91326
C         10.81151       -1.13477        3.09954
C         11.27876       -2.31898        3.92147
C          7.34259       -4.57040        0.61188
C          6.99939       -5.45842       -0.60003
O          7.51513       -6.77809       -0.39593
C          6.77739       -7.56228        0.47240
O          5.78059       -7.14132        1.02249
C          7.38931       -8.92977        0.62719
C          8.85765       -8.89793        1.10139
C          9.05343       -8.16323        2.43007
H          3.95941        2.54696       -2.45272
H          4.34129        1.05097       -3.32176
H          5.58780        1.85728       -2.34727
H          3.00352        0.58273       -1.22489
H          4.22806        1.38969       -0.25072
H          5.92176       -0.32047       -0.95620
H          4.70754       -1.13243       -1.94514
H          3.28025       -1.48782        0.13419
H          4.55572       -0.80066        1.11885
H          4.71826       -3.37110       -0.60100
H          4.57379       -3.32104        1.15837
H          7.35367       -2.33608       -0.74811
H          6.94809       -2.17334        2.74919
H          6.98002       -0.78964        1.64644
H         10.96367       -0.18150        3.61797
H         11.27888       -1.09973        2.10821
H         10.76395       -2.35862        4.89002
H         12.35578       -2.21946        4.11425
H         11.12022       -3.26593        3.38894
H          6.86135       -4.97143        1.51705
H          8.43026       -4.53127        0.76343
H          7.49395       -5.09548       -1.51046
H          5.91274       -5.51218       -0.75844
H          7.32637       -9.44087       -0.34649
H          6.75502       -9.47717        1.33629
H          9.48300       -8.44265        0.31983
H          9.19427       -9.94009        1.19954
H          8.78319       -7.09818        2.35047
H         10.10162       -8.20973        2.75300
H          8.43738       -8.60048        3.22882
