73

C          1.21522        9.98671        0.68174
C          2.32367        9.81224        1.72137
C          3.18352        8.56730        1.48226
C          4.28217        8.37445        2.53096
C          5.12901        7.11940        2.30009
C          6.20571        6.91298        3.36996
C          7.01857        5.63046        3.15931
C          8.06388        5.43022        4.25645
N          8.76323        4.14201        4.08837
C         10.08723        3.93726        4.14037
N         10.65189        2.91856        3.45061
C         10.19687        2.32581        2.19824
C         10.99800        2.74609        0.95016
O         11.19970        1.98009        0.03625
O         11.37557        4.03430        1.02096
C         12.06785        4.57608       -0.16572
C         11.11200        4.87926       -1.30989
C          9.95929        5.82510       -0.95655
C          9.03690        6.10640       -2.14711
C          7.82186        6.96760       -1.78992
C          6.88790        7.23073       -2.97441
C          5.65656        8.06669       -2.61196
C          4.72588        8.31376       -3.80040
N         10.88336        4.71354        4.89726
C         10.53891        5.31879        6.19789
C         11.59986        4.99928        7.25610
C         12.98296        5.58033        6.95313
H          0.61970       10.88835        0.87743
H          0.52883        9.12721        0.68435
H          1.63046       10.07604       -0.33308
H          1.87952        9.75630        2.72945
H          2.97205       10.70463        1.72468
H          3.63998        8.62566        0.47856
H          2.53356        7.67481        1.46888
H          3.82270        8.32309        3.53362
H          4.93858        9.26218        2.54225
H          5.60560        7.17423        1.30608
H          4.46868        6.23499        2.27523
H          5.73016        6.88279        4.36525
H          6.88576        7.78196        3.37933
H          7.51728        5.65443        2.17657
H          6.33170        4.76545        3.15073
H          7.58209        5.46380        5.24631
H          8.81845        6.22707        4.22180
H          8.19840        3.37332        3.73777
H         11.58471        2.65162        3.75123
H          9.14876        2.59829        2.01382
H         10.24489        1.23186        2.26420
H         12.83587        3.85173       -0.46698
H         12.54507        5.48569        0.22087
H         10.71890        3.93430       -1.71407
H         11.72561        5.32166       -2.11277
H         10.36276        6.77622       -0.56695
H          9.36227        5.38767       -0.13735
H          8.69025        5.14795       -2.57061
H          9.61427        6.59914       -2.94769
H          8.16343        7.93095       -1.37216
H          7.25088        6.47086       -0.98400
H          6.55954        6.26688       -3.40083
H          7.45027        7.73963       -3.77621
H          5.98428        9.03244       -2.19147
H          5.09832        7.55773       -1.80701
H          5.24313        8.85765       -4.60419
H          3.84855        8.90683       -3.50903
H          4.36165        7.36658       -4.22427
H         11.87085        4.71375        4.65460
H          9.56365        4.91932        6.50221
H         10.43960        6.40981        6.08183
H         11.65884        3.90860        7.39574
H         11.23021        5.41241        8.20658
H         13.43849        5.15551        6.04386
H         13.67946        5.36266        7.77199
H         12.94225        6.67170        6.83016
