100

C         -2.85492        9.31598        7.94935
C         -2.61081        8.07783        7.08054
C         -2.22810        8.37832        5.62446
C         -0.85277        9.02461        5.39421
N          0.28151        8.23008        5.92127
C          0.72822        7.14730        5.26225
S          0.11700        6.67776        3.74745
S          2.06702        6.29425        6.07136
C          2.32595        4.83989        5.01939
C          1.34327        3.67731        5.28366
C          0.77643        3.04724        3.98909
C         -0.71815        2.75077        4.05638
N         -1.50642        4.03623        4.33680
C         -2.73882        4.08853        3.43180
C         -2.82427        2.66382        2.87853
C         -1.36335        2.19975        2.77044
C         -1.18519        0.69235        2.59817
C         -3.93823        4.61241        4.21637
C         -5.21808        4.73428        3.38019
C         -6.40242        5.26133        4.19911
C         -7.70689        5.34615        3.39962
C         -8.90068        5.82285        4.23435
C        -10.21210        5.89084        3.44428
C        -11.41390        6.33081        4.28715
C        -12.72322        6.40538        3.49421
C        -13.93456        6.79969        4.34516
C        -15.24067        6.89137        3.54814
C        -16.45310        7.24892        4.41197
C        -17.75184        7.35250        3.59983
N        -18.92012        7.64600        4.41731
C        -19.70431        6.70632        5.05129
C        -20.63962        7.37203        5.82362
C        -20.40818        8.76619        5.65806
C        -19.33956        8.90506        4.78996
C          0.89912        8.69504        7.18375
C          2.15214        9.56765        7.00912
C          1.93552       10.89462        6.27240
C          3.21284       11.73567        6.20116
H         -3.18221        9.03361        8.95853
H         -3.63673        9.95521        7.51422
H         -1.95463        9.93704        8.06550
H         -3.53071        7.47142        7.06633
H         -1.84323        7.43400        7.54389
H         -2.97072        9.06179        5.18020
H         -2.27084        7.45546        5.02747
H         -0.79425       10.00593        5.87859
H         -0.69267        9.16963        4.31803
H          3.36662        4.55877        5.23135
H          2.26882        5.19109        3.97959
H          0.52545        4.06316        5.90987
H          1.83202        2.90943        5.89859
H          1.29707        2.10909        3.75082
H          0.95243        3.72398        3.13869
H         -0.94173        2.07202        4.89573
H         -0.89874        4.90671        4.18215
H         -1.80732        4.06822        5.31622
H         -2.47485        4.79295        2.62743
H         -3.34545        2.63527        1.91421
H         -3.38250        2.01557        3.57563
H         -0.89591        2.71633        1.91306
H         -1.63499        0.13915        3.43606
H         -0.12524        0.41205        2.53516
H         -1.66755        0.35018        1.67360
H         -3.68908        5.60065        4.64001
H         -4.12505        3.93528        5.07108
H         -5.48080        3.75121        2.95613
H         -5.03246        5.40155        2.52127
H         -6.15283        6.25728        4.60519
H         -6.55641        4.60622        5.07458
H         -7.93571        4.35413        2.97247
H         -7.56645        6.02109        2.53740
H         -8.67730        6.81697        4.65972
H         -9.03104        5.14756        5.09836
H        -10.42166        4.90102        3.00190
H        -10.08974        6.58161        2.59163
H        -11.20399        7.31672        4.73828
H        -11.53934        5.63296        5.13380
H        -12.91644        5.42816        3.01758
H        -12.60666        7.12632        2.66616
H        -13.73897        7.76928        4.83569
H        -14.05862        6.06834        5.16292
H        -15.42405        5.92878        3.03858
H        -15.12430        7.64025        2.74468
H        -16.28058        8.20588        4.93063
H        -16.59031        6.49070        5.20005
H        -17.94206        6.41091        3.06252
H        -17.66265        8.14081        2.83657
H        -19.53581        5.64596        4.89118
H        -21.41214        6.90538        6.42645
H        -20.96889        9.57879        6.10884
H        -18.84905        9.79072        4.39843
H          1.13531        7.80906        7.79292
H          0.12292        9.25146        7.72379
H          2.93902        8.98729        6.50256
H          2.53181        9.76657        8.02532
H          1.14170       11.47247        6.77667
H          1.57551       10.69857        5.24933
H          3.58481       11.98731        7.20470
H          3.03992       12.67765        5.66453
H          4.01481       11.19689        5.67523
