87

C          1.25074        0.94264        1.26473
C          2.75256        0.70040        1.09706
C          3.20732       -0.66389        1.63053
C          4.71023       -0.90502        1.43330
C          5.13821       -2.26038        1.95640
O          6.58542       -2.39698        1.69872
C          7.17287       -3.49475        2.15487
O          6.67224       -4.43044        2.73989
C          8.67447       -3.44385        1.79550
N          9.42168       -4.38474        2.62129
C          9.78450       -5.66088        2.35374
C          9.49981       -6.43281        1.12345
C          8.43845       -7.53397        1.38851
C          8.15484       -8.35320        0.12599
C          7.23982       -9.55559        0.38633
C          6.93515      -10.35382       -0.88643
C          6.10878      -11.62111       -0.64070
C          5.78286      -12.38083       -1.93118
C          5.00781      -13.68416       -1.70927
C          4.63327      -14.38766       -3.01826
C          3.90212      -15.72033       -2.81992
C          3.46965      -16.36115       -4.14303
C          2.77950      -17.71555       -3.94499
N          2.31527      -18.30736       -5.20198
C          3.09155      -19.01012       -6.09084
C          2.31378      -19.32662       -7.21127
C          1.03422      -18.79261       -6.99038
C          1.06136      -18.16220       -5.73981
N         10.41722       -6.17051        3.43121
N         10.44584       -5.26362        4.37303
N          9.84084       -4.14968        3.91519
C          9.50136       -2.96930        4.68014
O          8.65774       -2.20687        4.27980
C         10.34094       -2.68203        5.96690
C          9.58125       -2.93782        7.32823
C          9.22041       -4.43003        7.65794
C         10.41769       -5.34171        8.11217
O         10.71579       -5.39256        9.27341
O         11.03590       -6.03682        7.14855
F          8.30304       -4.41440        8.64123
F          8.60896       -4.94269        6.51807
F         10.35892       -2.44260        8.31591
F          8.42594       -2.22620        7.27215
F         11.51866       -3.36085        5.96803
F         10.61658       -1.35602        5.91219
H          0.96081        1.92639        0.87183
H          0.95463        0.90812        2.32384
H          0.65923        0.18463        0.73014
H          3.31624        1.49523        1.61320
H          3.02379        0.77988        0.03098
H          2.63492       -1.46106        1.12540
H          2.95588       -0.73970        2.70241
H          5.28747       -0.12135        1.94907
H          4.96181       -0.83441        0.36298
H          4.62794       -3.09159        1.44830
H          4.98420       -2.36718        3.03934
H          9.07643       -2.43328        1.90843
H          8.81643       -3.75864        0.75315
H         10.44285       -6.90147        0.80300
H          9.17063       -5.77044        0.31115
H          7.51752       -7.06310        1.76518
H          8.81293       -8.18906        2.18970
H          9.10852       -8.71274       -0.29773
H          7.70412       -7.70274       -0.64339
H          6.29596       -9.21344        0.84429
H          7.71697      -10.21684        1.12990
H          7.88481      -10.63222       -1.37594
H          6.40479       -9.70468       -1.60479
H          5.16985      -11.35563       -0.12420
H          6.65697      -12.28550        0.04993
H          6.72104      -12.60502       -2.46859
H          5.20282      -11.72237       -2.60154
H          4.09017      -13.47340       -1.13264
H          5.60918      -14.36569       -1.08261
H          5.54562      -14.56047       -3.61546
H          4.00125      -13.71337       -3.62245
H          3.01545      -15.56198       -2.18147
H          4.55499      -16.41675       -2.26533
H          4.34530      -16.49743       -4.79883
H          2.78260      -15.68678       -4.67992
H          1.90434      -17.61544       -3.28697
H          3.46010      -18.43457       -3.46522
H          4.12882      -19.23820       -5.86564
H          2.65294      -19.88958       -8.07420
H          0.17189      -18.85437       -7.64574
H          0.28272      -17.63211       -5.19988
H         10.70691       -5.81598        6.24713
