56

C          0.70160       -0.21041       -1.33399
C          2.07189        0.44589       -1.53067
C          2.29496        0.88495       -2.96835
O          3.61733        1.45930       -3.05741
C          3.95465        1.88674       -4.36111
C          5.38405        2.31635       -4.33269
N          6.36040        1.79005       -5.08796
N          7.48953        2.40598       -4.80234
N          7.22352        3.30181       -3.85083
N          5.90031        3.27976       -3.53336
C          5.30098        4.03854       -2.42055
C          5.47000        3.30130       -1.07166
O          6.85832        2.98343       -0.96562
C          7.15665        1.75843       -0.24788
C          6.88353        1.84427        1.23207
C          7.62945        2.71790        2.03823
C          7.33360        2.85119        3.39441
C          6.29377        2.10578        3.96203
C          5.55670        1.22171        3.17048
C          5.85100        1.09414        1.80993
C          4.95662        4.22020        0.03841
C          8.18546        4.15781       -3.31496
N          8.01423        5.35495       -2.84137
N          9.26598        5.79300       -2.47655
C         10.11072        4.81996       -2.77384
O          9.46690        3.71915       -3.31975
S         11.81264        4.84897       -2.54949
C         12.33897        3.25265       -3.29878
C         13.86461        3.20255       -3.25837
H          0.56298       -0.50872       -0.28752
H          0.59445       -1.11262       -1.95257
H         -0.11739        0.47512       -1.59401
H          2.87323       -0.25599       -1.25148
H          2.17124        1.32331       -0.87175
H          1.54630        1.63774       -3.27942
H          2.22469        0.02743       -3.66253
H          3.31431        2.72707       -4.70332
H          3.87780        1.07896       -5.11063
H          4.23957        4.15423       -2.66759
H          5.78598        5.02151       -2.40043
H          4.87988        2.36961       -1.11362
H          8.22558        1.59504       -0.44634
H          6.58752        0.92484       -0.69624
H          8.43555        3.30644        1.59538
H          7.91572        3.53445        4.01377
H          6.06467        2.20978        5.02302
H          4.75270        0.63181        3.61200
H          5.27270        0.40534        1.18904
H          5.59429        5.11009        0.12463
H          4.96133        3.69637        0.99983
H          3.92531        4.54216       -0.16761
H         11.95847        3.21933       -4.32756
H         11.88885        2.43650       -2.71935
H         14.31404        4.02253       -3.83347
H         14.20017        2.25670       -3.70333
H         14.24854        3.24430       -2.23057
