48

C          4.68813        3.19556        1.86639
C          4.32260        2.20200        0.75847
C          5.03645        2.51841       -0.54356
O          4.64798        1.52292       -1.53155
C          5.20536        1.69808       -2.78892
N          6.65470        1.33173       -2.83982
N          7.54103        2.35476       -3.07780
C          8.71558        1.78841       -3.13454
N          8.61937        0.44043       -2.92767
C          7.30855        0.14565       -2.74362
N          6.85106       -1.12658       -2.48236
C          7.76119       -2.22519       -2.59312
O          8.95921       -2.03837       -2.76750
C          7.18675       -3.61046       -2.47619
C          5.41630       -1.38615       -2.27329
C          4.70463       -1.59664       -3.62723
O          5.11876       -1.00883       -4.62785
N          3.63597       -2.41752       -3.60597
C          2.79229       -2.65470       -4.78709
C          1.80559       -3.79473       -4.54249
C          0.74608       -3.50786       -3.46829
C         -0.24380       -4.66086       -3.28563
H          4.16398        2.94639        2.79722
H          4.40953        4.22383        1.59538
H          5.76660        3.18598        2.08115
H          3.23663        2.20969        0.57979
H          4.58647        1.17784        1.06776
H          6.13215        2.49422       -0.40824
H          4.76125        3.51640       -0.92700
H          5.20303        2.74414       -3.13051
H          4.67985        1.05600       -3.50557
H          9.64919        2.30992       -3.31651
H          9.30340       -0.33769       -2.92883
H          6.35115       -3.77699       -3.16913
H          6.83192       -3.81034       -1.45393
H          7.99514       -4.31105       -2.70444
H          4.97375       -0.52600       -1.74860
H          5.32200       -2.24386       -1.59963
H          3.34250       -2.83004       -2.72526
H          3.45778       -2.88030       -5.63207
H          2.25819       -1.72380       -5.03985
H          2.36113       -4.71585       -4.29419
H          1.30152       -3.99925       -5.49966
H          0.20310       -2.58676       -3.73820
H          1.22550       -3.29556       -2.49501
H         -0.78025       -4.87446       -4.22114
H         -0.99327       -4.42482       -2.51908
H          0.26791       -5.58481       -2.97894
