80

C          0.67095       -0.14416       -0.00713
C          1.86584        0.72127        0.40074
C          2.72321        1.16637       -0.78939
C          3.89839        2.06810       -0.39774
C          4.78255        2.46423       -1.58459
C          5.93942        3.39251       -1.19746
C          6.84030        3.74912       -2.38806
C          7.97678        4.66084       -1.97302
O          8.79391        4.93731       -3.17272
C         10.00272        5.45638       -2.96672
O         10.51602        5.72498       -1.89986
C         10.71532        5.67132       -4.32164
C         12.18999        5.84807       -4.13838
C         12.84520        7.06990       -4.35042
C         14.21518        7.15696       -4.18208
C         14.91139        6.00627       -3.76775
N         14.26402        4.86921       -3.51859
N         12.95591        4.81234       -3.71603
C         12.44638        3.43119       -3.51400
C         12.79539        2.60187       -4.75854
C         12.42173        1.11710       -4.64228
C         13.56703        0.11366       -4.23536
C         14.30049        0.25425       -2.84598
C         13.47794        0.05232       -1.52054
F         12.76968       -1.08148       -1.54949
F         14.33309        0.01665       -0.48789
F         12.63019        1.09333       -1.32740
F         15.29076       -0.66646       -2.84291
F         14.86919        1.50029       -2.78503
F         13.06721       -1.14133       -4.31505
F         14.54934        0.25505       -5.17368
F         11.36203        0.94039       -3.78572
F         12.01426        0.68694       -5.87472
C         16.40034        5.90240       -3.61679
C         16.91386        4.67708       -4.39720
O         16.32065        4.18705       -5.33902
O         18.07313        4.25472       -3.89252
C         18.66307        3.06910       -4.53695
C         19.87625        2.65174       -3.73101
C         20.52093        1.38392       -4.30777
C         21.76131        0.93101       -3.52804
C         22.37763       -0.35533       -4.08267
H          0.08676       -0.46187        0.86734
H          0.99622       -1.05250       -0.53615
H         -0.00769        0.40307       -0.67825
H          2.49826        0.16675        1.11472
H          1.50772        1.61211        0.94418
H          2.08610        1.69552       -1.51992
H          3.10562        0.27331       -1.31479
H          4.51579        1.55699        0.36174
H          3.51145        2.97933        0.09093
H          4.16430        2.95472       -2.35625
H          5.18920        1.55272       -2.05615
H          6.54388        2.91306       -0.40830
H          5.53302        4.31636       -0.75140
H          6.24670        4.23897       -3.17617
H          7.25785        2.82914       -2.82850
H          8.63223        4.20677       -1.21690
H          7.62307        5.62851       -1.58820
H         10.30033        6.57748       -4.78497
H         10.47576        4.84062       -5.00037
H         12.25766        7.93143       -4.66596
H         14.74722        8.08984       -4.37015
H         11.37126        3.45845       -3.32688
H         12.94923        3.06941       -2.61394
H         13.86556        2.69708       -4.98877
H         12.23908        2.97960       -5.62846
H         16.67721        5.80002       -2.55744
H         16.89977        6.80476       -3.99670
H         18.91765        3.33882       -5.57228
H         17.89053        2.28698       -4.56659
H         19.57330        2.47491       -2.68663
H         20.60825        3.47473       -3.71619
H         20.79774        1.55567       -5.36238
H         19.77918        0.56628       -4.31759
H         21.49006        0.78422       -2.46925
H         22.51183        1.73868       -3.54000
H         21.66500       -1.19223       -4.03585
H         23.26909       -0.64854       -3.51249
H         22.68047       -0.23557       -5.13336
