46

C          1.25902       -0.20274        0.71084
C          2.64104        0.12481        0.14210
C          3.08672       -0.86211       -0.94680
C          4.47897       -0.52885       -1.50513
C          4.99462       -1.42472       -2.63375
C          4.22018       -1.43419       -3.95441
O          4.57308       -2.67362       -4.57756
C          4.80844       -3.69574       -3.62363
N          4.93234       -2.90355       -2.27871
C          3.65323       -4.69871       -3.51130
C          2.26877       -4.11727       -3.20768
C          1.18180       -5.21270       -3.15927
C         -0.12544       -4.66262       -2.83301
C         -1.19405       -4.16782       -2.55856
C          6.16624       -4.34983       -3.90719
C          6.25706       -4.99982       -5.30564
C          7.65445       -5.39944       -5.62749
C          8.11321       -6.64621       -5.78840
F          7.34172       -7.72465       -5.66959
F          9.36062       -6.95604       -6.08441
F          8.53572       -4.37050       -5.75771
H          0.97133        0.52135        1.48340
H          1.23837       -1.20150        1.17107
H          0.48612       -0.17881       -0.07066
H          3.38835        0.13128        0.95239
H          2.64045        1.14255       -0.28087
H          2.33457       -0.87186       -1.75255
H          3.07228       -1.87684       -0.50020
H          5.21742       -0.52565       -0.68744
H          4.48107        0.49874       -1.90244
H          6.05353       -1.21504       -2.83952
H          4.54113       -0.62312       -4.61842
H          3.13165       -1.36013       -3.79783
H          5.75818       -3.21015       -1.75267
H          4.09798       -3.07291       -1.69619
H          3.92788       -5.46256       -2.76313
H          3.61548       -5.22535       -4.47635
H          1.99016       -3.38017       -3.97392
H          2.24285       -3.58826       -2.23832
H          1.45477       -5.98249       -2.41734
H          1.13458       -5.72793       -4.13345
H         -2.15379       -3.75635       -2.32431
H          6.37622       -5.11096       -3.13829
H          6.94267       -3.57107       -3.83724
H          5.90586       -4.28296       -6.06473
H          5.61806       -5.88998       -5.36891
