37

C          1.44911       -0.62634       -0.24228
C          2.28246        0.40947       -0.11596
C          3.09364        0.97936       -1.25114
P          4.87336        0.62177       -1.01573
C          5.25912       -1.15569       -1.18017
C          6.67185       -1.45979       -0.72057
C          7.71193       -1.43863       -1.66426
C          9.02724       -1.71033       -1.28915
C          9.30910       -2.00744        0.04568
C          8.27717       -2.04195        0.98467
C          6.94612       -1.77317        0.63117
C          5.85944       -1.86944        1.67412
C          5.96275        1.59367       -2.11652
C          5.75590        3.11550       -2.17352
C          5.94408        3.82836       -0.84318
F          7.11543        3.49318       -0.24933
F          5.90667        5.16110       -0.99060
F          4.94266        3.48443        0.03852
H          0.86422       -0.98401        0.60476
H          1.29968       -1.13673       -1.19641
H          2.39083        0.91446        0.84823
H          2.99539        2.07509       -1.30343
H          2.79631        0.55811       -2.22384
H          5.18441        0.97839        0.31308
H          5.10867       -1.41908       -2.23852
H          4.49288       -1.68338       -0.59213
H          7.48451       -1.23545       -2.71371
H          9.82216       -1.70209       -2.03477
H         10.33167       -2.22396        0.35597
H          8.50436       -2.29143        2.02287
H          6.28209       -2.14400        2.64752
H          5.11285       -2.63611        1.41368
H          5.31382       -0.92287        1.81693
H          5.82782        1.17245       -3.12444
H          6.98808        1.34440       -1.80285
H          4.76311        3.38691       -2.55698
H          6.49492        3.53518       -2.87017
