51

C          4.71391       -1.92783        0.37925
C          5.02666       -0.50938        0.80483
O          5.38586        0.32015       -0.36867
C          4.38854        0.94310       -0.98210
O          3.21070        0.92428       -0.66184
N          4.85668        1.67814       -2.11087
C          3.91466        2.33347       -2.87143
N          4.09755        2.86838       -4.08343
N          2.95773        3.44179       -4.56804
C          2.05437        3.25555       -3.62994
N          2.61815        2.57629       -2.56249
C          0.62967        3.69338       -3.68552
C         -0.01444        3.44421       -5.06469
C         -1.50090        3.82346       -5.12006
C         -1.75697        5.33509       -5.09629
S         -3.53373        5.65519       -5.07667
O         -4.11142        5.24423       -6.33937
O         -4.05111        5.18806       -3.81491
O         -3.54973        7.28024       -5.02271
C          6.32470        1.90072       -2.32946
C          6.81456        1.37548       -3.69312
O          6.38483        1.75534       -4.77871
O          7.80805        0.51444       -3.53017
C          8.45823       -0.01877       -4.74919
C          7.76306       -1.28024       -5.22007
C          6.72555        3.36812       -2.13526
H          4.51763       -2.53131        1.27624
H          5.55986       -2.37991       -0.15370
H          3.81960       -1.97081       -0.25521
H          5.92363       -0.44793        1.43107
H          4.18398       -0.02532        1.31228
H          4.96121        2.70702       -4.64684
H          2.20185        2.19930       -1.70574
H          0.59158        4.76367       -3.42269
H          0.06606        3.16477       -2.90128
H          0.08185        2.37498       -5.30591
H          0.55218        3.98678       -5.83613
H         -2.04015        3.34886       -4.28500
H         -1.93136        3.40954       -6.04291
H         -1.35241        5.83757       -5.98596
H         -1.36813        5.83129       -4.19591
H         -3.87820        7.59301       -5.88771
H          6.80492        1.28781       -1.56466
H          9.48458       -0.20941       -4.41671
H          8.45182        0.77215       -5.50882
H          7.74258       -2.04182       -4.43003
H          8.31829       -1.69347       -6.07330
H          6.73802       -1.07618       -5.55458
H          6.28877        4.03388       -2.88986
H          7.81757        3.45409       -2.20646
H          6.42247        3.70909       -1.13750
