26

Br         1.81165       -1.31277        0.29761
N          3.11180        0.12377        0.21764
C          3.55849        0.34633       -1.20121
C          4.93466        1.02039       -1.23033
C          5.38743        1.24926       -2.67332
F          5.44412        0.08339       -3.36240
F          4.52935        2.07279       -3.32891
F          6.61052        1.81293       -2.69635
C          2.58690        1.35128        0.92278
C          2.60426        1.21450        2.44715
C          3.96163        1.39132        3.15336
C          5.00970        0.32559        2.88273
O          5.00033       -0.43082        1.91184
O          6.03153        0.22568        3.73163
H          3.92690       -0.23728        0.84132
H          2.78850        0.93937       -1.71244
H          3.61406       -0.63859       -1.67830
H          5.69235        0.39036       -0.74394
H          4.93649        2.00513       -0.74370
H          1.57338        1.53763        0.54772
H          3.22756        2.18267        0.59171
H          2.14251        0.25951        2.74190
H          1.93286        1.99427        2.83354
H          3.78830        1.44998        4.23889
H          4.42112        2.35699        2.87633
H          5.94823        0.84348        4.48151
