97

C         14.97237      -18.50590      -12.38223
C         14.24065      -17.77935      -11.25100
C         14.45537      -16.26134      -11.26388
C         13.71041      -15.52523      -10.14542
C         13.91931      -14.00703      -10.16326
C         13.13724      -13.26689       -9.07229
C         13.33704      -11.74789       -9.10540
C         12.50601      -10.99594       -8.05794
C         12.71846       -9.47727       -8.11991
C         11.83940       -8.72002       -7.14155
O         12.14826       -7.30365       -7.27163
C         11.34241       -6.46797       -6.51936
N         11.89514       -5.07852       -6.77119
C         11.80025       -4.63035       -8.21391
C         10.36998       -4.33101       -8.66553
O         10.53071       -3.43069       -9.74809
C          9.30794       -2.92961      -10.31382
C          8.64155       -1.86639       -9.45762
O          7.98156       -2.52430       -8.37039
C          7.34288       -1.75012       -7.41972
C          7.54392       -0.37655       -7.24506
C          6.84036        0.29578       -6.24319
C          5.91370       -0.34924       -5.41007
C          5.75402       -1.73229       -5.59579
C          6.45411       -2.42806       -6.57985
C          5.14185        0.43617       -4.33687
C          4.56077        1.77412       -4.89638
C          3.41184        1.85002       -5.95162
C          2.02676        1.59455       -5.31953
C          3.42352        3.30134       -6.48075
C          3.60066        0.90022       -7.14990
C          4.05348       -0.42106       -3.66431
C          6.16288        0.82662       -3.23484
C         11.38190       -4.06693       -5.76919
O         12.20020       -4.24332       -4.66103
C         11.93483       -3.29783       -3.58670
C         12.94715       -3.54029       -2.48898
H         14.80064      -19.59017      -12.34282
H         16.05873      -18.34004      -12.32815
H         14.63431      -18.15263      -13.36808
H         14.57047      -18.18347      -10.27874
H         13.15987      -17.99236      -11.31418
H         14.13561      -15.85788      -12.24124
H         15.53608      -16.04579      -11.18925
H         14.02941      -15.92662       -9.16741
H         12.63069      -15.74433      -10.22278
H         13.62500      -13.61146      -11.15140
H         14.99575      -13.78428      -10.05842
H         13.43168      -13.65445       -8.08140
H         12.06208      -13.49519       -9.17876
H         13.07886      -11.36916      -10.10977
H         14.40633      -11.51487       -8.96023
H         12.76083      -11.36582       -7.05006
H         11.43753      -11.22809       -8.20891
H         12.50712       -9.11234       -9.13804
H         13.77276       -9.23702       -7.90846
H         12.02735       -9.02982       -6.09797
H         10.76794       -8.87351       -7.36336
H         11.41637       -6.64119       -5.43035
H         10.28147       -6.46934       -6.83217
H         12.90204       -5.16124       -6.55197
H         12.27806       -5.41140       -8.81505
H         12.39277       -3.70906       -8.28975
H          9.77380       -3.87858       -7.85387
H          9.84455       -5.24983       -8.98894
H          8.60518       -3.75785      -10.51282
H          9.60539       -2.48596      -11.27299
H          7.90779       -1.30180      -10.06073
H          9.41040       -1.16220       -9.09387
H          8.22464        0.18537       -7.88331
H          7.01129        1.36774       -6.13959
H          5.04751       -2.28765       -4.98069
H          6.29204       -3.49619       -6.73173
H          5.41026        2.34645       -5.30169
H          4.22449        2.35607       -4.02142
H          1.87091        2.22665       -4.43275
H          1.88454        0.54990       -5.01700
H          1.23219        1.83412       -6.04131
H          3.29402        4.02773       -5.66467
H          2.60883        3.46154       -7.20156
H          4.37218        3.53123       -6.98817
H          3.57098       -0.15737       -6.85495
H          4.55589        1.07377       -7.66457
H          2.79431        1.06189       -7.88072
H          3.35204       -0.86117       -4.38444
H          3.47067        0.19559       -2.96724
H          4.49504       -1.24151       -3.08001
H          6.94760        1.48946       -3.62548
H          6.64949       -0.07068       -2.82612
H          5.65907        1.34943       -2.40882
H         10.31397       -4.27395       -5.57216
H         11.48086       -3.06582       -6.22715
H         10.90152       -3.44852       -3.22952
H         12.01595       -2.27439       -3.99326
H         12.86507       -4.56047       -2.09244
H         12.76687       -2.83862       -1.66400
H         13.97083       -3.38308       -2.85286
