82

C         -0.20803        2.18161        1.09445
C          1.02193        1.67725        1.85194
C          2.27591        2.51996        1.59706
C          3.51885        2.00775        2.33193
C          4.76944        2.84608        2.04684
C          6.01524        2.30187        2.72452
O          7.11737        3.15787        2.38546
C          8.35311        2.79478        2.96256
C          9.21180        4.06973        3.08158
C         10.70671        3.74411        3.31771
C         11.49233        3.77595        2.00987
N         11.26614        5.06243        1.34960
C         10.00199        5.49888        1.18836
N          9.75042        6.56063        0.40395
C          8.43805        7.17004        0.09635
C          7.46256        7.32116        1.24507
C          6.20387        6.71407        1.10809
C          5.20504        6.90253        2.06392
C          5.46992        7.70223        3.17509
C          6.72660        8.29041        3.32880
C          7.74312        8.12013        2.37882
C          9.07697        8.78596        2.59376
N          9.03062        4.81123        1.79705
C          8.73022        4.96613        4.19868
N          9.39028        5.92230        4.77945
N          8.52371        6.52977        5.68161
C          7.39216        5.87398        5.58728
O          7.44437        4.86293        4.65711
S          5.93904        6.15445        6.48242
C          4.77762        5.05164        5.58431
C          3.34057        5.41652        5.95134
C          2.34067        4.55523        5.16981
C          0.87646        4.85867        5.50213
C         -0.10301        4.01476        4.68187
C         -1.57816        4.27202        5.00496
C         -2.53136        3.41217        4.17089
H         -1.10198        1.59465        1.34384
H         -0.06122        2.11995        0.00624
H         -0.42617        3.23192        1.33847
H          1.22524        0.63087        1.56896
H          0.81075        1.66144        2.93340
H          2.07820        3.56528        1.89537
H          2.48128        2.55056        0.51253
H          3.70415        0.95932        2.04181
H          3.32181        1.99255        3.41738
H          4.61377        3.88474        2.38015
H          4.95094        2.88849        0.96034
H          6.22683        1.26926        2.38959
H          5.89601        2.28452        3.82455
H          8.88500        2.05591        2.33203
H          8.22434        2.35789        3.96906
H         10.78942        2.75756        3.79481
H         11.12634        4.48587        4.00799
H         11.19134        2.96163        1.33037
H         12.56651        3.67523        2.19955
H         12.04520        5.65712        1.09567
H         10.51380        6.85303       -0.19791
H          7.95569        6.59504       -0.71016
H          8.67945        8.15979       -0.31944
H          5.99516        6.10779        0.22317
H          4.22529        6.44390        1.92765
H          4.69947        7.87841        3.92622
H          6.92707        8.90562        4.20703
H          8.98821        9.59907        3.32337
H          9.48873        9.21058        1.66657
H          9.81595        8.07529        2.99519
H          8.06101        5.06643        1.60699
H          5.00544        4.01145        5.85475
H          4.95618        5.18220        4.50952
H          3.16126        6.48254        5.73520
H          3.18086        5.28650        7.03406
H          2.54433        3.48840        5.36688
H          2.50780        4.70060        4.08793
H          0.67460        5.93014        5.33006
H          0.70273        4.68584        6.57808
H          0.11930        2.94473        4.84129
H          0.07089        4.20098        3.60770
H         -1.80603        5.33921        4.84441
H         -1.75240        4.08421        6.07766
H         -2.42050        3.61753        3.09605
H         -3.57992        3.60003        4.43787
H         -2.33775        2.33951        4.32233
