77

O          1.91400       -1.06017       -1.41284
C          2.65027       -0.76122       -0.48407
C          3.07476       -1.71313        0.56777
C          3.80187       -1.31954        1.71059
C          4.21185       -2.26942        2.64483
C          3.90099       -3.61863        2.44803
C          3.17211       -4.01890        1.32024
C          2.75953       -3.07532        0.38671
C          3.22904        0.67480       -0.46928
N          4.66955        0.67181       -0.91889
C          5.29115        2.08592       -0.98459
O          5.28414        2.40204       -2.32967
C          5.71356        1.20981       -3.03936
C          4.88196        0.09293       -2.34319
C          5.48899       -1.30208       -2.27996
C          5.53727       -1.98655       -3.65826
O          6.41935       -3.07524       -3.55964
Si         7.28458       -3.71502       -4.87229
C          6.07683       -4.44712       -6.10730
C          8.29076       -2.33718       -5.66929
C          8.38442       -5.01080       -4.09824
C          7.22937        1.01469       -3.01235
C          7.97126        2.22851       -3.57892
C          9.48792        2.06641       -3.71497
C         10.40163        2.45158       -2.48336
C         10.31311        1.68881       -1.10094
C         10.58037        0.13533       -0.96293
C         11.95661       -0.52091       -1.38596
C         13.32549       -0.09434       -0.71483
C         13.56731       -0.23966        0.84297
C         13.42081       -1.65824        1.51009
F         14.11500       -2.58578        0.83241
F         13.89426       -1.58594        2.76443
F         12.12698       -2.03263        1.56666
F         14.84782        0.15994        1.04067
F         12.74112        0.61611        1.49934
F         14.26937       -0.83789       -1.34429
F         13.54292        1.21283       -1.00939
F         11.79523       -1.85571       -1.17967
F         12.11019       -0.31663       -2.71759
F         10.35051       -0.15888        0.34251
F          9.62728       -0.51267       -1.69890
F         11.14348        2.32934       -0.25222
F          9.02816        1.86627       -0.62637
F         11.69109        2.40722       -2.88847
F         10.09207        3.74714       -2.17169
F          9.81584        0.79778       -4.11971
F          9.90982        2.91947       -4.70156
H          4.01709       -0.26723        1.91004
H          4.76067       -1.95771        3.53332
H          4.22049       -4.36129        3.17952
H          2.92743       -5.07105        1.17430
H          2.19295       -3.36582       -0.49822
H          3.19442        1.13881        0.52482
H          2.66409        1.28253       -1.18466
H          5.20994        0.09386       -0.25911
H          6.29793        2.00396       -0.53929
H          4.67157        2.79929       -0.42967
H          5.36098        1.35211       -4.06971
H          3.87820        0.06653       -2.78818
H          4.91364       -1.94344       -1.59731
H          6.51818       -1.25933       -1.89098
H          5.86419       -1.26406       -4.43229
H          4.52044       -2.31649       -3.94259
H          5.38420       -3.68917       -6.50134
H          5.48033       -5.24744       -5.64810
H          6.61220       -4.87815       -6.96538
H          7.66260       -1.55594       -6.12144
H          8.90816       -2.75244       -6.47916
H          8.97143       -1.86379       -4.94765
H          7.79064       -5.77088       -3.57275
H          9.08242       -4.56190       -3.37840
H          8.97824       -5.52190       -4.86924
H          7.47013        0.12818       -3.61531
H          7.57031        0.78626       -1.99614
H          7.77079        3.13708       -2.99616
H          7.62264        2.42998       -4.60348
