35

C          3.09051        0.07936       -4.83077
C          2.50377        0.92918       -3.70138
C          2.77744        0.36852       -2.30891
O          4.19345        0.32366       -1.98183
C          4.69432        1.53888       -1.46397
N          6.13950        1.55808       -1.58133
C          6.95792        1.15364       -0.57564
N          8.25424        1.54685       -0.47546
C          8.75471        0.96236        0.65845
N          7.85479        0.23639        1.26977
N          6.72928        0.33909        0.48252
C          5.54472       -0.43106        0.85255
C          6.71740        1.85429       -2.91181
C          7.35246        3.24482       -3.06541
N          8.70960        3.30721       -2.46414
H          2.87867        0.52504       -5.81097
H          2.66239       -0.93313       -4.82578
H          4.18048       -0.02513       -4.73569
H          1.40965        0.99865       -3.81070
H          2.86897        1.96829       -3.76874
H          2.44707       -0.67775       -2.24369
H          2.23839        0.94051       -1.53371
H          4.42010        1.67379       -0.40189
H          4.30243        2.40423       -2.02645
H          8.65564        2.28415       -1.16901
H          9.77566        1.08469        1.00501
H          5.89663       -1.35411        1.32363
H          4.96689       -0.66294       -0.04995
H          4.93126        0.12799        1.57108
H          5.89128        1.75210       -3.62700
H          7.44745        1.07039       -3.17010
H          6.71938        3.99533       -2.57247
H          7.37512        3.49228       -4.13853
H          8.96917        4.27535       -2.26729
H          9.40410        2.95865       -3.12907
