45

C          6.84568        1.71671        1.54147
C          5.72268        1.51265        0.52340
C          5.94207        0.28331       -0.36697
C          4.82109        0.08262       -1.39568
C          5.09530       -1.06530       -2.36923
O          4.19531       -1.15631       -3.45489
C          2.87018       -1.62660       -3.11816
N          3.04528       -2.95094       -2.48579
C          4.14729       -3.28502       -1.80573
N          4.26725       -4.50808       -1.23853
C          3.27933       -5.55310       -1.30385
C          3.59359       -6.74579       -1.96591
C          2.65946       -7.78357       -1.98935
C          1.41423       -7.62294       -1.37452
C          1.10561       -6.42712       -0.71999
C          2.04149       -5.39045       -0.66848
N          5.13589       -2.38706       -1.68923
N          2.03038       -1.75048       -4.24031
C          1.36149       -0.50883       -4.64194
C          2.56313       -2.50977       -5.37930
H          6.66120        2.60296        2.16209
H          7.81586        1.85706        1.04292
H          6.93804        0.85269        2.21576
H          5.63295        2.40599       -0.11587
H          4.75798        1.41273        1.04756
H          6.03092       -0.60818        0.27911
H          6.90729        0.38664       -0.89330
H          4.71532        0.99053       -2.01026
H          3.86143       -0.07628       -0.87781
H          6.08462       -0.92440       -2.83308
H          2.40398       -0.93127       -2.40033
H          2.29936       -3.63410       -2.59380
H          5.18647       -4.76278       -0.88890
H          4.56244       -6.85949       -2.45501
H          2.90505       -8.71754       -2.49511
H          0.68656       -8.43434       -1.39739
H          0.14175       -6.30480       -0.22565
H          1.82452       -4.47448       -0.11681
H          5.95686       -2.62314       -1.14305
H          0.93013       -0.01573       -3.76103
H          0.54183       -0.75759       -5.32782
H          2.04018        0.19718       -5.15243
H          3.04271       -3.43375       -5.03308
H          3.29883       -1.93409       -5.96570
H          1.72713       -2.78336       -6.03530
