91

C          0.55486       -0.12505       -0.26929
C          2.08257       -0.12517       -0.36941
C          2.75237       -1.10630        0.59876
C          4.28228       -1.11776        0.51632
C          4.93440       -2.10757        1.48677
C          6.46511       -2.13850        1.42072
C          7.08564       -3.15854        2.38090
C          8.61576       -3.22571        2.33361
C          9.19756       -4.27145        3.29091
C         10.72762       -4.35729        3.28226
C         11.27260       -5.41947        4.24335
C         12.80224       -5.50858        4.28601
C         13.31275       -6.58938        5.24536
C         14.84012       -6.67771        5.34077
C         15.31910       -7.77944        6.29274
C         16.84301       -7.86636        6.43449
C         17.29569       -8.99672        7.36572
C         18.81632       -9.08035        7.54589
C         19.24003      -10.24739        8.44734
C         20.76218      -10.47471        8.55962
P         21.70862       -9.08658        9.25711
C         21.00737       -8.58339       10.86124
C         21.80201       -7.44915       11.53179
O         22.07888       -6.51805       10.47417
C         21.02888       -6.81811       12.68288
C         23.48659       -9.45122        9.33092
C         24.11217       -9.71194        7.93752
C         25.62001       -9.80744        8.03332
C         26.24301      -11.04240        8.26020
C         27.63258      -11.12434        8.37161
C         28.41353       -9.97127        8.25800
C         27.80084       -8.73600        8.03084
C         26.41119       -8.65518        7.92030
H          0.10305        0.58389       -0.97696
H          0.22086        0.15615        0.74075
H          0.14028       -1.12078       -0.48715
H          2.46516        0.89193       -0.17865
H          2.38459       -0.37125       -1.40170
H          2.36992       -2.12439        0.40529
H          2.44534       -0.86296        1.63163
H          4.66716       -0.10171        0.71404
H          4.59084       -1.36089       -0.51587
H          4.54364       -3.12096        1.28636
H          4.62087       -1.86505        2.51768
H          6.86336       -1.13277        1.64301
H          6.78252       -2.36720        0.38795
H          6.67362       -4.15894        2.15884
H          6.76565       -2.92639        3.41223
H          9.03531       -2.23279        2.57355
H          8.94176       -3.45005        1.30264
H          8.77768       -5.26201        3.04144
H          8.85445       -4.05179        4.31753
H         11.15170       -3.37199        3.54452
H         11.07835       -4.57414        2.25792
H         10.85927       -6.40505        3.96513
H         10.89511       -5.21367        5.26071
H         13.21767       -4.52891        4.58126
H         13.18809       -5.70680        3.27059
H         12.91141       -7.56948        4.93269
H         12.89853       -6.40401        6.25226
H         15.24281       -5.70435        5.67241
H         15.26223       -6.85291        4.33566
H         14.93122       -8.75268        5.94440
H         14.87181       -7.61766        7.28936
H         17.23112       -6.90230        6.80843
H         17.29722       -8.01006        5.43856
H         16.92671       -9.96053        6.97481
H         16.81955       -8.87008        8.35379
H         19.17561       -8.11949        7.95782
H         19.29944       -9.18622        6.55878
H         18.81551      -11.18309        8.05174
H         18.80378      -10.13068        9.45248
H         21.20274      -10.67136        7.56903
H         20.99075      -11.34868        9.19074
H         21.56589       -7.99136        8.38218
H         20.95682       -9.47234       11.50659
H         19.97516       -8.25870       10.65346
H         22.75225       -7.86543       11.91795
H         22.48046       -5.71794       10.84947
H         20.08268       -6.38668       12.32832
H         21.62294       -6.01869       13.14791
H         20.80997       -7.55844       13.46481
H         23.63526      -10.30906       10.00465
H         23.95800       -8.57440        9.79970
H         23.83762       -8.89442        7.25235
H         23.70672      -10.64172        7.51225
H         25.64005      -11.95054        8.33560
H         28.10672      -12.09191        8.53831
H         29.49887      -10.03682        8.33712
H         28.40725       -7.83558        7.92850
H         25.94040       -7.68788        7.72768
