77

C          2.46937        7.59902       -5.44779
C          3.77285        6.79748       -5.47005
C          3.90225        5.81588       -4.29836
C          5.21960        5.03222       -4.32133
C          5.35101        4.04884       -3.16980
O          6.63107        3.40657       -3.27130
C          6.84994        2.38739       -2.31121
C          8.25548        1.83704       -2.60680
N          8.36079        1.63436       -4.06135
C          8.39243        0.43761       -4.65474
N          8.44645        0.35750       -6.00673
N          8.35726       -0.68123       -3.93618
C          8.07981       -0.70209       -2.49257
C          8.72481        0.55810       -1.87233
C          8.63433        0.60882       -0.32344
C          9.44634        1.80203        0.20162
O         10.30820        2.37169       -0.44404
O          9.12023        2.10194        1.47165
C          9.90728        3.15773        2.11727
C         11.16082        2.59083        2.75781
C          7.24283        0.45861        0.31573
C          8.60421       -2.03070       -1.92883
C          8.01497       -3.27365       -2.64742
C          9.10521       -4.20083       -3.20537
S          8.50456       -5.39357       -4.43096
C          8.60975       -4.48970       -5.96530
S          9.32214       -2.95649       -6.07696
N          8.13959       -5.15775       -7.03524
C          8.21268       -4.56721       -8.38910
C          9.55118       -4.78274       -9.09934
C          7.55715       -6.51155       -6.93335
C          8.55434       -7.65074       -7.16229
H          2.41199        8.29222       -6.29759
H          2.38197        8.19504       -4.52752
H          1.59120        6.93853       -5.49891
H          4.63192        7.48904       -5.45755
H          3.84778        6.23961       -6.41879
H          3.05041        5.11386       -4.31598
H          3.81961        6.37148       -3.34839
H          6.07102        5.73101       -4.28481
H          5.30618        4.47722       -5.27036
H          4.55177        3.28354       -3.20744
H          5.27526        4.56546       -2.19418
H          6.07242        1.60098       -2.39314
H          6.81462        2.80311       -1.28847
H          8.97545        2.62927       -2.35926
H          8.05699        2.43678       -4.60923
H          8.84432        1.12922       -6.52833
H          8.52526       -0.57023       -6.42486
H          8.58021       -1.56045       -4.43809
H          6.98290       -0.67305       -2.35451
H          9.80212        0.49152       -2.09802
H          9.23205       -0.25335        0.02526
H          9.21851        3.57198        2.86332
H         10.14195        3.92223        1.36551
H         10.91468        1.79667        3.47464
H         11.68353        3.38946        3.30222
H         11.84983        2.19281        2.00200
H          6.61036        1.34226        0.17399
H          7.34220        0.30287        1.39514
H          6.70686       -0.40741       -0.09520
H          8.37077       -2.07659       -0.85816
H          9.70402       -2.03185       -2.00808
H          7.36002       -2.96320       -3.47490
H          7.36747       -3.83748       -1.96248
H          9.55250       -4.82647       -2.41962
H          9.90950       -3.63140       -3.69513
H          8.01148       -3.49295       -8.28529
H          7.39173       -5.01749       -8.96366
H         10.37540       -4.34067       -8.52634
H          9.51945       -4.29432      -10.08262
H          9.76606       -5.84585       -9.25894
H          6.74416       -6.55725       -7.67131
H          7.08761       -6.60391       -5.94376
H          8.94309       -7.65313       -8.18761
H          8.04913       -8.61111       -6.99389
H          9.40233       -7.58768       -6.46847
