100

F          2.34062        1.02439        0.95189
C          3.60191        0.56416        0.59785
C          3.45233       -0.60111       -0.37937
C          4.78503       -1.26480       -0.73492
N          5.30315       -2.08675        0.46156
C          4.63397       -3.43810        0.65070
C          4.82453       -4.29148       -0.60436
C          4.20049       -3.57144       -1.83023
C          4.81037       -2.15999       -1.98481
C          2.65853       -3.59774       -1.84885
C          2.06447       -4.98989       -2.09220
C          0.52840       -5.03414       -2.23845
C          0.02204       -4.12244       -3.38461
C         -0.47976       -2.73095       -2.93539
C         -0.73772       -1.82134       -4.10117
C         -0.01823       -0.75379       -4.49309
C          1.19850       -0.23626       -3.76588
C         -0.38841        0.02196       -5.72969
C          0.07244       -6.48651       -2.43161
C          6.30788       -4.68553       -0.76416
C          6.63239       -5.51411       -2.00477
O          7.99644       -5.86808       -1.90956
C          8.52473       -6.39058       -3.12950
C         10.00403       -6.67654       -2.90852
O         10.56044       -6.83256       -4.20567
C         11.91051       -7.08858       -4.30834
C         12.41296       -7.15369       -5.61513
C         13.75856       -7.41663       -5.82572
C         14.65230       -7.63664       -4.75857
C         14.12858       -7.54334       -3.46547
C         12.77391       -7.27316       -3.22672
C         16.11758       -7.98728       -5.04356
C         16.24114       -9.32738       -5.84569
C         15.63622      -10.69304       -5.39372
C         16.11819      -11.14973       -4.00316
C         14.09361      -10.70915       -5.41141
C         16.12991      -11.72327       -6.43434
C         16.72349       -6.88230       -5.94777
C         16.97556       -8.00853       -3.76293
H          4.11380        0.27763        1.53770
H          4.15970        1.40126        0.14695
H          3.00990       -0.22592       -1.31268
H          2.72790       -1.32158        0.02683
H          5.54427       -0.47542       -0.85858
H          5.21160       -1.53010        1.32082
H          6.30947       -2.25518        0.32346
H          3.57789       -3.24200        0.87053
H          5.09620       -3.89026        1.53841
H          4.25381       -5.21564       -0.42359
H          4.51506       -4.12559       -2.72767
H          4.29511       -1.61390       -2.78756
H          5.85800       -2.25472       -2.31136
H          2.33399       -2.92197       -2.65362
H          2.22850       -3.18053       -0.92226
H          2.34942       -5.67397       -1.27459
H          2.51353       -5.41033       -3.01029
H          0.08824       -4.66768       -1.29201
H         -0.79819       -4.62691       -3.91803
H          0.81904       -3.99432       -4.13739
H          0.23739       -2.27631       -2.23615
H         -1.41010       -2.86762       -2.35831
H         -1.59508       -2.09783       -4.72489
H          1.36397       -0.74480       -2.80750
H          1.10393        0.84258       -3.56459
H          2.10414       -0.35961       -4.38463
H         -1.26762       -0.40406       -6.22811
H          0.44268        0.03699       -6.45400
H         -0.60763        1.07455       -5.48733
H          0.45843       -6.89926       -3.37656
H         -1.02326       -6.55337       -2.46472
H          0.42251       -7.13632       -1.61610
H          6.62151       -5.26549        0.11823
H          6.97708       -3.80511       -0.79985
H          6.45723       -4.93195       -2.93115
H          5.98363       -6.41289       -2.05571
H          8.41910       -5.64803       -3.94268
H          7.98546       -7.30719       -3.43041
H         10.14469       -7.58557       -2.29822
H         10.46638       -5.82524       -2.37638
H         11.73031       -6.99969       -6.45130
H         14.11496       -7.47615       -6.85472
H         14.77538       -7.69567       -2.60240
H         12.41649       -7.21770       -2.19907
H         17.32371       -9.48819       -5.99155
H         15.84063       -9.13599       -6.85600
H         15.67940      -10.54577       -3.19768
H         17.21343      -11.10150       -3.91306
H         15.81648      -12.19280       -3.82611
H         13.65825      -10.07161       -4.63230
H         13.73190      -11.73510       -5.24462
H         13.69800      -10.37050       -6.38030
H         17.22761      -11.79674       -6.43712
H         15.80949      -11.44882       -7.45069
H         15.72597      -12.72237       -6.21462
H         16.20940       -6.80775       -6.91523
H         17.78344       -7.09332       -6.15130
H         16.65848       -5.90249       -5.45389
H         16.62109       -8.71602       -3.00601
H         17.01322       -7.01052       -3.30229
H         18.00596       -8.29447       -4.01588
