95

C          0.65586       -0.96698       -1.21628
C          2.16948       -0.87786       -1.01074
C          2.77927        0.40511       -1.58327
C          4.29590        0.50697       -1.39674
C          4.89280        1.79400       -1.97265
C          6.41055        1.90724       -1.80192
C          6.98596        3.20593       -2.37331
C          8.50121        3.34652       -2.20318
C          9.05244        4.65044       -2.78627
C         10.56434        4.82188       -2.61469
C         11.09127        6.13088       -3.20892
C         12.60050        6.32719       -3.04059
C         13.10943        7.63682       -3.64998
C         14.60654        7.87498       -3.43162
C         15.10678        9.17859       -4.06274
C         16.58388        9.46452       -3.77332
C         17.06908       10.76456       -4.42037
C         18.55090       11.06907       -4.08137
C         19.03825       12.34704       -4.69754
C         19.10168       12.45322       -6.09018
C         19.50852       13.63869       -6.68249
N         19.84763       14.67559       -5.89539
N         19.85626       14.62268       -4.56863
C         19.45851       13.49836       -3.95383
C         19.54278       13.57279       -2.45195
C         18.37173       14.30983       -1.72601
C         18.31038       15.80443       -2.05671
C         17.01302       13.63620       -1.94216
C         20.31810       15.95495       -6.46656
C         21.85727       16.00736       -6.47339
O         22.29173       17.24915       -7.03199
C         22.28793       17.30385       -8.41705
O         21.86346       16.38893       -9.09082
C         22.89226       18.59652       -8.90406
C         22.55378       18.92787      -10.36092
C         21.08778       19.31164      -10.57366
H          0.24379       -1.89590       -0.79831
H          0.39816       -0.93943       -2.28576
H          0.13877       -0.12518       -0.73150
H          2.65790       -1.75044       -1.47662
H          2.40086       -0.94010        0.06611
H          2.29446        1.27897       -1.11260
H          2.54004        0.47140       -2.65963
H          4.78110       -0.36501       -1.86993
H          4.53744        0.44129       -0.32111
H          4.40855        2.66405       -1.49468
H          4.64246        1.86195       -3.04621
H          6.89918        1.04457       -2.28844
H          6.66496        1.83462       -0.72971
H          6.48691        4.06554       -1.89172
H          6.73346        3.27379       -3.44635
H          9.00566        2.48884       -2.68203
H          8.75622        3.28791       -1.13035
H          8.53565        5.50504       -2.31483
H          8.80117        4.70197       -3.86038
H         11.08595        3.96993       -3.08500
H         10.81861        4.77811       -1.54108
H         10.56190        6.98011       -2.74181
H         10.83641        6.17046       -4.28270
H         13.13550        5.47760       -3.49985
H         12.85422        6.30079       -1.96621
H         12.54288        8.48177       -3.22058
H         12.89073        7.64407       -4.73216
H         15.17972        7.02584       -3.84229
H         14.81748        7.88980       -2.34811
H         14.49534       10.02005       -3.69266
H         14.94587        9.14150       -5.15423
H         17.20354        8.62315       -4.12822
H         16.73699        9.51880       -2.68169
H         16.44111       11.60412       -4.08381
H         16.94587       10.70153       -5.51405
H         19.17280       10.24289       -4.46638
H         18.67946       11.08207       -2.99305
H         18.83118       11.61218       -6.72893
H         19.57622       13.79602       -7.75829
H         20.47424       14.10565       -2.21197
H         19.63217       12.55984       -2.03958
H         18.62770       14.21517       -0.65779
H         18.01343       15.98321       -3.10054
H         19.27608       16.30061       -1.89028
H         17.56368       16.29637       -1.41869
H         16.68144       13.71972       -2.98916
H         16.24629       14.12341       -1.32525
H         17.02947       12.57218       -1.66684
H         19.90470       16.75653       -5.84423
H         19.93503       16.02821       -7.49045
H         22.25996       15.16522       -7.05610
H         22.24540       15.98268       -5.44770
H         23.98273       18.48858       -8.77052
H         22.59209       19.40344       -8.21797
H         22.81384       18.06713      -10.99402
H         23.20412       19.75661      -10.67576
H         20.41279       18.48487      -10.31109
H         20.89865       19.56740      -11.62427
H         20.81218       20.18579       -9.96528
