39

F          1.12033       -0.88985       -0.39630
C          2.47989       -0.65912       -0.17372
C          2.88212        0.61617       -0.90822
C          4.39309        0.90493       -0.86373
O          4.71322        2.24653       -1.24622
C          4.47272        2.52808       -2.63103
C          4.77695        4.01119       -2.84106
C          3.56975        4.91217       -2.58952
C          2.30851        4.76759       -3.33187
O          2.41812        4.31734       -1.96728
C          5.36562        1.64458       -3.49964
N          5.17520        0.17238       -3.15050
C          5.29660       -0.05715       -1.64343
C          3.92568       -0.56764       -3.71961
O          3.75374       -1.70727       -3.40030
O          3.26943        0.23265       -4.51556
C          2.01337       -0.33113       -5.11533
C          1.30916        0.80185       -5.81530
H          3.02031       -1.54889       -0.53735
H          2.63434       -0.56859        0.91318
H          2.37734        1.48071       -0.45404
H          2.49733        0.54767       -1.93712
H          4.72764        0.83662        0.18428
H          3.41381        2.33495       -2.86995
H          5.15090        4.19435       -3.86114
H          5.59102        4.27681       -2.15151
H          3.81635        5.90738       -2.20591
H          2.21050        3.96842       -4.07777
H          1.66211        5.63480       -3.48981
H          6.42713        1.85564       -3.30542
H          5.15541        1.76279       -4.56780
H          5.95406       -0.35005       -3.57655
H          6.34753        0.14258       -1.39964
H          5.07454       -1.11573       -1.46786
H          1.43678       -0.76030       -4.28558
H          2.32843       -1.13525       -5.79243
H          1.02252        1.59540       -5.11336
H          0.38945        0.40847       -6.26976
H          1.92418        1.22762       -6.61847
