114

C         14.15025      -23.72484       -9.26217
C         13.68819      -22.37790       -9.82190
C         14.29075      -21.17838       -9.08415
C         13.83466      -19.82434       -9.63482
C         14.44107      -18.62612       -8.89852
C         13.98800      -17.27211       -9.45227
C         14.60091      -16.07287       -8.72297
C         14.15446      -14.72110       -9.28749
C         14.77707      -13.51844       -8.57229
C         14.33386      -12.17054       -9.14874
C         14.96883      -10.96452       -8.44999
C         14.54117       -9.62223       -9.05067
C         15.18808       -8.41347       -8.36588
C         14.78507       -7.08646       -9.01525
C         15.36168       -5.83937       -8.34107
N         16.84039       -5.80594       -8.35400
N         17.53994       -5.79875       -7.18322
C         18.81314       -5.79078       -7.52989
N         18.91767       -5.77985       -8.91655
C         17.65720       -5.80697       -9.39977
C         20.13016       -5.89306       -9.72063
C         20.16933       -7.25830      -10.44103
O         19.17642       -7.93598      -10.61279
O         21.41254       -7.51946      -10.82928
C         21.63119       -8.77343      -11.58431
C         21.45556       -8.56882      -13.07837
C         21.76792       -9.86201      -13.84554
C         21.60361       -9.71625      -15.36169
C         21.89750      -11.01188      -16.12515
C         21.73717      -10.86634      -17.63935
C         19.96764       -5.79197       -6.58639
C         19.55744       -5.89769       -5.11096
C         20.77336       -5.90478       -4.18017
C         20.39211       -6.03291       -2.70179
C         21.60408       -6.03962       -1.76511
C         21.23319       -6.16770       -0.28453
C         22.44932       -6.16706        0.64662
C         22.08749       -6.27115        2.13102
C         23.30655       -6.25447        3.05811
C         22.94859       -6.33942        4.54431
C         24.16797       -6.31896        5.47116
C         23.79919       -6.39568        6.95384
H         13.70341      -24.56544       -9.81065
H         13.87153      -23.83222       -8.20327
H         15.24374      -23.82840       -9.32732
H         12.58781      -22.31618       -9.77496
H         13.94934      -22.31308      -10.89177
H         15.39259      -21.23937       -9.13153
H         14.03094      -21.24319       -8.01268
H         12.73323      -19.76314       -9.58526
H         14.09268      -19.76152      -10.70679
H         15.54262      -18.68902       -8.94657
H         14.18139      -18.68733       -7.82701
H         12.88702      -17.20665       -9.39977
H         14.24304      -17.21410      -10.52520
H         15.70216      -16.14198       -8.77065
H         14.34072      -16.12518       -7.65117
H         13.05419      -14.64834       -9.23221
H         14.40648      -14.67494      -10.36171
H         15.87773      -13.59313       -8.62545
H         14.52222      -13.55889       -7.49878
H         13.23461      -12.09077       -9.08683
H         14.57950      -12.13732      -10.22482
H         16.06861      -11.05159       -8.50107
H         14.71105      -10.98496       -7.37680
H         13.44308       -9.52791       -8.99496
H         14.79378       -9.60891      -10.12538
H         16.28520       -8.53000       -8.39619
H         14.90878       -8.39818       -7.29858
H         13.69014       -6.96836       -8.98389
H         15.05166       -7.08919      -10.08578
H         15.09901       -5.79405       -7.27728
H         15.00714       -4.91855       -8.82498
H         17.37397       -5.83575      -10.44545
H         21.00223       -5.76491       -9.07147
H         20.15475       -5.09272      -10.47405
H         20.93892       -9.52811      -11.18919
H         22.66231       -9.04415      -11.32682
H         22.12196       -7.76007      -13.41737
H         20.42071       -8.25477      -13.28764
H         21.10936      -10.67027      -13.48424
H         22.79968      -10.18189      -13.62041
H         22.27059       -8.91634      -15.72725
H         20.57531       -9.38448      -15.58824
H         21.22854      -11.80766      -15.75685
H         22.92277      -11.34452      -15.89203
H         20.71356      -10.56357      -17.90504
H         21.94926      -11.81124      -18.15697
H         22.42269      -10.10582      -18.04134
H         20.55765       -4.87255       -6.74967
H         20.63590       -6.63100       -6.84853
H         18.96620       -6.81487       -4.96481
H         18.89209       -5.05871       -4.85622
H         21.35651       -4.97910       -4.32815
H         21.44419       -6.73721       -4.45634
H         19.80997       -6.95908       -2.55476
H         19.71967       -5.20256       -2.42512
H         22.18529       -5.11305       -1.91541
H         22.27668       -6.86908       -2.04556
H         20.65458       -7.09540       -0.13110
H         20.55899       -5.33943       -0.00451
H         23.03375       -5.24521        0.47957
H         23.11766       -7.00271        0.37412
H         21.50988       -7.19627        2.30341
H         21.41394       -5.43876        2.40068
H         23.88870       -5.33385        2.87634
H         23.97619       -7.09237        2.79549
H         22.36699       -7.25996        4.72878
H         22.27887       -5.50134        4.80672
H         24.75037       -5.40134        5.28215
H         24.83409       -7.15907        5.21154
H         23.16241       -5.54854        7.24948
H         24.69226       -6.37921        7.59355
H         23.24523       -7.31917        7.17905
