68

C          1.12498       -0.20599       -0.22596
C          2.64656       -0.10076       -0.09687
C          3.10482        0.42660        1.26785
C          4.62693        0.53885        1.40317
C          5.08498        1.06994        2.76614
C          6.60699        1.20051        2.88591
C          7.07152        1.75977        4.23626
C          8.59407        1.91548        4.31660
C          9.06387        2.53103        5.63439
N         10.52936        2.64372        5.64806
C         11.23707        3.48656        6.40188
N         10.71617        4.31501        7.31944
C         11.74753        5.17473        7.91364
C         13.08826        4.59002        7.34593
N         12.57089        3.62230        6.33249
C         13.84718        3.77987        8.44320
C         13.01927        2.70914        9.11798
C         12.37135        2.96331       10.33792
C         11.57972        1.98832       10.95076
C         11.42997        0.73325       10.35610
C         12.09182        0.45514        9.15643
C         12.88052        1.43303        8.54661
C         13.95670        5.65236        6.67086
C         15.27873        5.88675        7.07125
C         16.07492        6.85891        6.46272
C         15.54983        7.62228        5.42328
C         14.23758        7.41694        4.99390
C         13.44145        6.44198        5.60654
O         12.14732        6.18767        5.22750
C         11.56393        6.99604        4.19883
H          0.83005       -0.59092       -1.21147
H          0.64406        0.77501       -0.09594
H          0.70482       -0.88174        0.53364
H          3.03957        0.55739       -0.89031
H          3.10098       -1.09037       -0.27371
H          2.71393       -0.23252        2.06293
H          2.64878        1.41650        1.44634
H          5.01564        1.19769        0.60679
H          5.08328       -0.45071        1.22506
H          4.70935        0.40584        3.56389
H          4.61998        2.05476        2.94789
H          6.98053        1.85257        2.07707
H          7.07365        0.21400        2.71943
H          6.72257        1.10130        5.04986
H          6.59339        2.73969        4.40789
H          8.94895        2.54502        3.48410
H          9.06890        0.92627        4.19087
H          8.72561        1.92116        6.48978
H          8.64392        3.54219        5.74958
H         11.04993        1.94198        5.13088
H          9.82672        4.13573        7.77013
H         11.71820        5.09576        9.00608
H         11.59324        6.21805        7.61557
H         13.08852        3.44320        5.47937
H         14.20965        4.49120        9.19915
H         14.73188        3.32266        7.97661
H         12.51113        3.92714       10.83347
H         11.09544        2.20353       11.90393
H         10.82339       -0.03333       10.83893
H         12.01145       -0.53487        8.70565
H         13.41592        1.19467        7.62561
H         15.70845        5.30278        7.88288
H         17.09795        7.01291        6.80323
H         16.15770        8.38455        4.93534
H         13.83975        8.02062        4.18072
H         11.54209        8.05801        4.48667
H         10.53804        6.62978        4.08608
H         12.09941        6.88147        3.24427
