66

C          0.70559       -9.60689        1.71961
C          2.23572       -9.64149        1.69045
C          2.83977       -8.64664        0.69390
C          4.37043       -8.66825        0.64084
C          4.95256       -7.66486       -0.35916
C          6.48250       -7.66864       -0.42723
C          7.04634       -6.64756       -1.42007
C          8.57664       -6.62226       -1.46652
C          9.13894       -5.59662       -2.45917
C         10.66093       -5.40570       -2.38073
C         11.46024       -6.66077       -2.75447
C         12.96349       -6.56127       -2.43548
C         13.70268       -5.48509       -3.24422
N         13.80374       -5.87968       -4.65810
C         13.78946       -7.16377       -5.03881
N         13.70727       -7.49362       -6.34600
C         13.81602       -6.54325       -7.46381
C         12.70919       -5.51966       -7.49407
C         12.92155       -4.20795       -7.64134
N         13.87247       -8.13572       -4.11730
C         13.72118       -7.88391       -2.68185
C         13.03043       -9.13329       -2.11275
O         12.72750      -10.08070       -2.81761
O         12.85206       -9.02456       -0.80002
C         12.16296      -10.13963       -0.12033
C         10.65884       -9.95158       -0.16223
H          0.29892      -10.32836        2.44142
H          0.28212       -9.84937        0.73351
H          0.33424       -8.61038        2.00158
H          2.57797      -10.66013        1.43990
H          2.62997       -9.43050        2.69909
H          2.49948       -7.62707        0.94794
H          2.43831       -8.85378       -0.31402
H          4.71388       -9.68579        0.38246
H          4.77515       -8.45922        1.64700
H          4.60545       -6.64977       -0.09789
H          4.54333       -7.87258       -1.36351
H          6.83581       -8.67959       -0.69932
H          6.89325       -7.46483        0.57772
H          6.67541       -5.64147       -1.15830
H          6.65204       -6.86104       -2.42897
H          8.93852       -7.63445       -1.71545
H          8.96649       -6.39916       -0.45670
H          8.66099       -4.62159       -2.27311
H          8.85188       -5.87989       -3.48700
H         10.93037       -5.09953       -1.35464
H         10.94520       -4.56585       -3.03602
H         11.29860       -6.89643       -3.82049
H         11.05644       -7.51724       -2.19631
H         13.08456       -6.31316       -1.37100
H         14.71199       -5.31644       -2.83891
H         13.16821       -4.52855       -3.20985
H         13.60562       -5.18586       -5.37733
H         13.78964       -8.47945       -6.56758
H         13.77102       -7.15765       -8.37502
H         14.80342       -6.05165       -7.45696
H         11.69087       -5.91372       -7.42395
H         13.92964       -3.79482       -7.73233
H         12.09405       -3.50269       -7.71109
H         13.61592       -9.09622       -4.37004
H         14.71784       -7.82251       -2.21209
H         12.55807      -10.09206        0.90064
H         12.47984      -11.07513       -0.59742
H         10.36457       -8.98214        0.26060
H         10.18258      -10.73937        0.43737
H         10.27026      -10.03114       -1.18578
