55

C          0.72070       -0.03342       -0.05230
C          2.24998        0.01702       -0.05885
C          2.80912        1.37377       -0.49914
C          4.33956        1.43092       -0.50450
C          4.90616        2.78014       -0.95753
C          6.43707        2.82867       -0.94524
C          7.02021        4.15917       -1.43148
C          8.55182        4.18415       -1.41258
C          9.14542        5.49090       -1.95090
C         10.66340        5.54121       -1.92621
O         11.17668        4.49739       -2.78558
C         12.58268        4.45476       -2.80972
C         13.00728        3.35081       -3.74270
C         13.91738        2.38293       -3.32264
C         14.25013        1.32635       -4.16353
N         13.65924        1.28757       -5.37125
N         12.83335        2.18189       -5.84823
C         12.49311        3.21675       -5.06680
C         11.56619        4.20909       -5.72649
O         12.16253        5.48490       -5.62303
C         11.30944        6.52887       -6.14326
C         12.05259        7.84473       -6.05393
Br        14.03708       -0.16431       -6.52768
H          0.35101       -1.01810        0.26476
H          0.31115        0.16987       -1.05293
H          0.30101        0.71644        0.63457
H          2.64257       -0.76919       -0.72590
H          2.63172       -0.22186        0.94815
H          2.41639        2.16258        0.16625
H          2.43003        1.61321       -1.50837
H          4.73064        0.63399       -1.16177
H          4.71543        1.19950        0.50769
H          4.51014        3.58047       -0.30865
H          4.54121        3.00612       -1.97486
H          6.83069        2.01053       -1.57462
H          6.79912        2.62419        0.07758
H          6.63064        4.98276       -0.80858
H          6.66381        4.35990       -2.45719
H          8.93548        3.33775       -2.00501
H          8.90814        4.02317       -0.38000
H          8.78316        6.34330       -1.35274
H          8.79658        5.67063       -2.98166
H         11.04710        5.37817       -0.90102
H         11.03847        6.51812       -2.28253
H         13.00078        4.26586       -1.80151
H         13.01640        5.40666       -3.18285
H         14.36100        2.41658       -2.32677
H         14.93554        0.51946       -3.91197
H         10.58902        4.17285       -5.20567
H         11.41762        3.90456       -6.77787
H         10.37149        6.55204       -5.55838
H         11.05034        6.29071       -7.19102
H         12.29887        8.09352       -5.01300
H         11.42552        8.65106       -6.45686
H         12.98232        7.81126       -6.63642
