95

C          2.70955       -0.08524       -2.49731
C          4.15641        0.18740       -2.07866
C          4.41242       -0.05600       -0.58766
C          5.85244        0.22752       -0.14867
C          6.09425       -0.03035        1.34148
C          7.51374        0.30019        1.81309
C          7.72992        0.02144        3.30348
C          9.10925        0.43006        3.82921
C          9.29067        0.13025        5.32008
C         10.63202        0.58894        5.89973
C         10.77073        0.27855        7.39298
C         12.08852        0.74858        8.01542
C         12.18857        0.42877        9.50993
C         13.50284        0.87315       10.15439
C         13.57943        0.52355       11.64626
C         14.90658        0.93707       12.33026
C         15.43543       -0.15095       13.28403
C         14.58873       -0.29088       14.54443
N         14.51565        1.02193       15.28234
C         14.00774        2.12831       14.39348
C         14.84471        2.26947       13.12153
C         14.32892        3.47105       12.32511
O         15.22468        3.70945       11.25978
C         14.80484        4.78279       10.42292
C         13.72531        0.93183       16.56692
C         14.25010        1.91015       17.61772
C         15.53761        1.41582       18.31508
S         16.72166        2.72397       18.71733
C         17.71981        2.83151       17.24290
S         17.52980        1.81213       15.90508
N         18.68540        3.76554       17.30632
C         19.66809        3.97430       16.22952
C         19.67773        5.44610       15.81795
O         19.92865        6.30011       16.92968
C         18.93919        6.12484       17.93258
C         18.90012        4.67859       18.44093
H          2.55734        0.09832       -3.56983
H          2.00665        0.55836       -1.94736
H          2.42541       -1.12902       -2.29550
H          4.42228        1.22912       -2.32697
H          4.83795       -0.44612       -2.67152
H          4.15496       -1.10157       -0.34133
H          3.72234        0.56968        0.00615
H          6.10529        1.27669       -0.38354
H          6.54691       -0.39004       -0.74521
H          5.87219       -1.08837        1.56771
H          5.37219        0.55985        1.93334
H          7.72857        1.36321        1.60406
H          8.24472       -0.27730        1.22027
H          7.56905       -1.05350        3.49884
H          6.95401        0.54990        3.88538
H          9.26286        1.50894        3.65042
H          9.89498       -0.08674        3.25065
H          9.17374       -0.95482        5.48897
H          8.47229        0.61000        5.88580
H         10.74920        1.67500        5.73760
H         11.45835        0.11012        5.34567
H         10.66504       -0.80964        7.54824
H          9.92854        0.74176        7.93736
H         12.19967        1.83691        7.86454
H         12.93567        0.28214        7.48314
H         12.05965       -0.65811        9.65770
H         11.34357        0.90525       10.03917
H         13.64250        1.95581       10.00983
H         14.35107        0.39494        9.63536
H         13.44669       -0.56719       11.74673
H         12.70849        0.96493       12.16235
H         15.66264        1.07432       11.54336
H         16.47691        0.06659       13.57116
H         15.45195       -1.12705       12.77859
H         15.02030       -1.01838       15.24464
H         13.55524       -0.59548       14.32095
H         15.51891        1.28409       15.55325
H         14.03676        3.05337       14.98458
H         12.95478        1.89541       14.17238
H         15.87526        2.52272       13.42795
H         14.26969        4.36091       12.98708
H         13.30303        3.28656       11.94370
H         15.55758        4.88278        9.63324
H         14.73968        5.73123       10.98564
H         13.82179        4.57437        9.96307
H         13.79751       -0.10493       16.92284
H         12.67430        1.12701       16.31525
H         13.46042        2.06777       18.36479
H         14.42306        2.89510       17.16001
H         16.08733        0.67693       17.71386
H         15.30973        0.95736       19.28712
H         19.40595        3.32685       15.38615
H         20.65867        3.67940       16.61228
H         18.71213        5.70868       15.34332
H         20.48507        5.62436       15.09612
H         17.94055        6.40643       17.54386
H         19.19987        6.80128       18.75692
H         18.09888        4.56841       19.18072
H         19.85524        4.41684       18.92381
