48

C          8.79841        4.85773       -4.97387
C          9.33642        3.88762       -3.91957
C          9.18914        4.41002       -2.48598
C          9.71945        3.43907       -1.42606
C          9.57048        3.96434        0.00647
C         10.14214        2.99692        1.05295
C          9.96392        3.54099        2.47144
S         10.76337        2.35312        3.62714
C         10.45515        3.12715        5.12608
N          9.81198        4.23993        5.41863
N          9.86460        4.37621        6.79720
C         10.53231        3.35628        7.21981
O         10.95559        2.49656        6.27310
N         10.81164        3.14995        8.62529
C          9.98572        1.95777        9.30704
C         10.63955        0.54385        9.30182
F         11.04195        0.24232        8.03964
F         11.70065        0.51941       10.13877
F          9.79107        2.37363       10.56596
F          8.81958        1.92196        8.65380
C         12.25313        3.28034        9.05131
C         12.49531        4.10821       10.14528
C         13.81351        4.27213       10.57342
C         14.84997        3.61812        9.90295
C         14.57534        2.79832        8.80436
C         13.26372        2.61607        8.36158
H          8.92081        4.45514       -5.98833
H          9.32406        5.82328       -4.93493
H          7.72732        5.05863       -4.82357
H         10.40052        3.67687       -4.12040
H          8.81562        2.91926       -4.00797
H          8.12532        4.62758       -2.28468
H          9.71693        5.37560       -2.39393
H         10.78381        3.22495       -1.62671
H          9.19315        2.47293       -1.51720
H          8.50472        4.15196        0.22144
H         10.07867        4.93965        0.09575
H         11.21257        2.82883        0.84915
H          9.64410        2.01746        0.96470
H          8.90713        3.62844        2.75478
H         10.45246        4.51494        2.60571
H         10.33328        3.97454        9.03931
H          9.87970       -0.18455        9.63443
H         11.68046        4.62257       10.65916
H         14.02480        4.91797       11.42505
H         15.87935        3.75201       10.23504
H         15.38672        2.29291        8.28125
H         13.05146        1.97246        7.51034
