80

C         22.64346       -1.58204       -9.52793
C         22.22377       -0.36336       -8.70159
C         20.71199       -0.28662       -8.46121
C         20.27816        0.92697       -7.63279
C         18.77178        0.97337       -7.35793
C         18.33005        2.19570       -6.54704
C         16.82609        2.23461       -6.25656
C         16.39156        3.48232       -5.48394
C         14.89363        3.55607       -5.16715
C         14.52507        4.86707       -4.46925
C         13.02993        5.06215       -4.18191
C         12.65018        6.31710       -3.37086
C         13.01285        7.66811       -4.02447
C         14.45374        8.11025       -3.72008
C         14.97336        9.35959       -4.48069
C         14.53396        9.44100       -5.95914
C         15.14387        8.30241       -6.78011
C         16.66221        8.28219       -6.67771
N         17.15566        8.34029       -5.23916
C         16.51207        9.50507       -4.48126
N         17.26071        9.62575       -3.21603
O         16.66369       10.74856       -2.58608
O         16.96432        8.46464       -2.41802
C         18.67606        8.31445       -5.19283
O         19.00847        7.42108       -4.18028
C         20.41924        7.07696       -4.13795
C         20.61881        6.06695       -3.02255
C         22.08680        5.64510       -2.86713
C         22.28993        4.63498       -1.73456
H         23.73223       -1.61670       -9.67070
H         22.17826       -1.56927      -10.52483
H         22.34327       -2.51953       -9.03652
H         22.55956        0.55856       -9.20680
H         22.74389       -0.38074       -7.72859
H         20.37843       -1.20986       -7.95559
H         20.18842       -0.27125       -9.43343
H         20.58454        1.85214       -8.15369
H         20.82398        0.92614       -6.67239
H         18.47121        0.05542       -6.82364
H         18.22394        0.95613       -8.31624
H         18.61998        3.11434       -7.09019
H         18.88565        2.22113       -5.59234
H         16.54012        1.33428       -5.68647
H         16.26683        2.17977       -7.20651
H         16.67639        4.37989       -6.06893
H         16.96442        3.54610       -4.54105
H         14.60375        2.70069       -4.53446
H         14.31167        3.45658       -6.09946
H         14.88580        5.68666       -5.11714
H         15.09496        4.94747       -3.52581
H         12.65878        4.17858       -3.63742
H         12.47953        5.07475       -5.13897
H         13.10287        6.26184       -2.36607
H         11.56266        6.29056       -3.20775
H         12.31932        8.44846       -3.67306
H         12.83767        7.57988       -5.10921
H         15.11882        7.25247       -3.89243
H         14.54166        8.30593       -2.64420
H         14.60567       10.26164       -3.96873
H         14.84344       10.41276       -6.37808
H         13.44026        9.41526       -6.02968
H         14.89137        8.40252       -7.84525
H         14.73861        7.33113       -6.45799
H         17.11195        9.15189       -7.17918
H         17.09340        7.36884       -7.10776
H         16.86166        7.47886       -4.74280
H         16.78626       10.41112       -5.04228
H         17.39711       11.13878       -2.07749
H         17.85794        8.13881       -2.20216
H         19.02505        9.34396       -5.00552
H         19.02526        7.96610       -6.18114
H         21.00814        7.99440       -3.95975
H         20.71309        6.66012       -5.11843
H         19.99114        5.18354       -3.22400
H         20.25910        6.50396       -2.07572
H         22.70707        6.53784       -2.68133
H         22.44602        5.21399       -3.81617
H         21.97342        5.04901       -0.76592
H         23.34633        4.35196       -1.64358
H         21.71272        3.71504       -1.90856
