102

C          1.21722        0.97073       -0.14201
C          2.73151        0.74850       -0.13550
C          3.23738       -0.03664       -1.35130
C          4.74742       -0.29370       -1.33198
C          5.25340       -1.10575       -2.52946
C          6.74949       -1.42820       -2.45861
C          7.25886       -2.29345       -3.61686
C          8.72972       -2.69577       -3.46769
C          9.24161       -3.63021       -4.56855
C         10.68438       -4.09042       -4.33914
C         11.22909       -4.99770       -5.44654
C         12.65179       -5.49762       -5.17188
C         13.29674       -6.18997       -6.37507
C         14.74035       -6.65893       -6.12991
C         15.53076       -6.90435       -7.43788
C         16.99115       -6.38927       -7.50839
C         17.55273       -6.74418       -8.91064
C         19.06425       -6.62053       -9.10664
O         19.31356       -6.75686      -10.49234
C         20.67741       -6.92989      -10.81303
C         20.80072       -7.48608      -12.23353
C         20.50334       -9.01525      -12.45026
C         19.08557       -9.63254      -12.15906
C         17.89359       -9.09223      -13.00691
F         16.84036       -9.94002      -12.83387
F         17.51727       -7.86067      -12.55976
F         19.20475      -10.95810      -12.44710
F         18.80161       -9.52191      -10.82712
F         20.77547       -9.29112      -13.75719
F         21.38645       -9.70156      -11.66672
F         20.03322       -6.76930      -13.10531
F         22.11096       -7.32555      -12.60327
C         17.82293       -7.03557       -6.34793
C         18.70313       -5.93664       -5.76617
N         17.83234       -4.71420       -5.92426
C         17.15038       -4.83167       -7.29701
C         15.95970       -3.87563       -7.31383
C         15.28629       -3.62985       -8.67456
C         14.13044       -2.65192       -8.39357
O         14.34306       -1.61456       -7.77208
N         12.89940       -3.08004       -8.81302
C         11.61822       -2.53497       -8.54660
C         10.51482       -3.23932       -9.05800
C          9.21935       -2.79859       -8.79885
C          9.00998       -1.65034       -8.02912
C         10.10976       -0.95016       -7.52793
C         11.41599       -1.37717       -7.77845
H          0.88794        1.53368        0.74226
H          0.67323        0.01426       -0.14729
H          0.89876        1.53491       -1.03142
H          3.02066        0.21284        0.78480
H          3.24822        1.72219       -0.09097
H          2.96712        0.50594       -2.27462
H          2.70534       -1.00317       -1.40472
H          5.01076       -0.82474       -0.40001
H          5.28383        0.67062       -1.28930
H          5.03470       -0.55984       -3.46413
H          4.68388       -2.04993       -2.59221
H          6.95807       -1.94776       -1.50655
H          7.32785       -0.48822       -2.41916
H          7.11453       -1.75920       -4.57273
H          6.64013       -3.20553       -3.68544
H          8.86676       -3.18517       -2.48698
H          9.35790       -1.78769       -3.43895
H          9.16912       -3.12711       -5.54702
H          8.58372       -4.51496       -4.63065
H         10.74879       -4.61367       -3.36874
H         11.33819       -3.20438       -4.25033
H         11.21359       -4.44520       -6.40113
H         10.55774       -5.86275       -5.58442
H         12.64971       -6.17416       -4.30007
H         13.28229       -4.63518       -4.88252
H         13.28441       -5.48498       -7.22365
H         12.68406       -7.04792       -6.69680
H         14.73096       -7.56834       -5.51087
H         15.23879       -5.90095       -5.49808
H         14.97094       -6.47722       -8.28269
H         15.56963       -7.98385       -7.64637
H         17.06333       -6.10670       -9.66442
H         17.26726       -7.77637       -9.15898
H         19.60423       -7.41035       -8.54839
H         19.45942       -5.64281       -8.75273
H         21.17922       -7.63067      -10.12202
H         21.22918       -5.97168      -10.80336
H         18.14622       -9.03654      -14.07714
H         18.42113       -7.88847       -6.68727
H         17.14913       -7.41292       -5.56731
H         19.61536       -5.75538       -6.34834
H         18.97092       -6.06193       -4.71056
H         18.35180       -3.83245       -5.83249
H         17.10019       -4.70883       -5.19879
H         17.91182       -4.46400       -8.00143
H         16.29230       -2.88442       -6.96348
H         15.19631       -4.20757       -6.59732
H         14.93665       -4.56114       -9.13950
H         15.98885       -3.15037       -9.37311
H         12.88323       -3.94297       -9.34818
H         10.67461       -4.14006       -9.65635
H          8.37181       -3.35601       -9.19825
H          7.99714       -1.30469       -7.82285
H          9.95625       -0.05071       -6.93081
H         12.26914       -0.82811       -7.39043
