41

O          3.39318       -0.57598        3.04032
C          2.86031       -1.72715        2.33438
C          2.59627       -1.39097        0.86618
C          3.79444       -1.03044       -0.04647
I          3.01489       -1.01188       -2.09315
C          4.99847       -2.00325        0.06257
C          5.99229       -1.34026        1.05154
N          5.41321        0.02269        1.33702
C          4.47076        0.33873        0.18886
C          3.65111        1.60204        0.45030
C          4.48785        2.71643        1.11777
O          5.86053        2.61026        0.72543
Si         6.88769        3.95693        0.47802
C          7.11186        4.84994        2.11025
C          8.47125        3.16396       -0.12380
C          6.12032        5.07690       -0.81356
H          3.31735       -0.72838        3.99566
H          1.90163       -2.01833        2.78760
H          3.55198       -2.58101        2.43673
H          1.83892       -0.59653        0.80863
H          2.12228       -2.28824        0.44210
H          5.47849       -2.12629       -0.91392
H          4.68709       -3.00033        0.39581
H          6.98757       -1.21017        0.61334
H          6.09544       -1.87619        2.00142
H          6.09092        0.81009        1.37844
H          4.84027       -0.02738        2.21364
H          5.14277        0.53163       -0.65920
H          2.77950        1.39484        1.08580
H          3.27295        1.93866       -0.52456
H          4.41974        2.63274        2.21728
H          4.06607        3.69682        0.84738
H          7.56588        4.19627        2.86838
H          6.15531        5.22096        2.50559
H          7.77105        5.72084        1.98412
H          8.88831        2.47306        0.62264
H          9.23203        3.93435       -0.31438
H          8.31574        2.61425       -1.06220
H          5.17847        5.53021       -0.47409
H          5.92814        4.53942       -1.75240
H          6.81005        5.90378       -1.03848
