66

C          3.06033       -1.52420        0.59615
O          2.60845       -0.17360        0.41356
C          3.37768        0.67216       -0.33548
C          4.55349        0.30022       -0.99871
C          5.26433        1.24865       -1.73767
C          4.82834        2.57252       -1.81398
C          3.66853        2.94902       -1.13952
C          2.92560        2.01065       -0.40971
C          1.69340        2.44132        0.28940
C          1.75674        3.35446        1.34936
C          0.60528        3.82191        1.99519
C         -0.62096        3.35546        1.56720
N         -0.66077        2.46470        0.54494
C          0.41733        1.99324       -0.12310
C          0.16112        1.09648       -1.29276
C          0.60550        1.75035       -2.59799
C          0.31201        3.10360       -2.82113
C          0.72023        3.74424       -3.99019
C          1.42896        3.02308       -4.95203
C          1.70580        1.67170       -4.74091
C          1.30487        1.00763       -3.57235
C          1.61012       -0.45949       -3.40334
C         -1.95745        3.78261        2.15387
C         -2.45839        5.22877        1.74516
C         -2.54944        5.61338        0.21214
C         -3.50442        4.86108       -0.80211
C         -5.06833        4.77019       -0.58154
C         -5.96652        6.06894       -0.47645
C         -6.04224        7.12087       -1.65696
C         -6.50594        6.63511       -3.08092
F         -7.64267        5.92577       -3.00023
F         -6.71448        7.71570       -3.84782
F         -5.55468        5.87671       -3.66034
F         -6.93297        8.05373       -1.24278
F         -4.82592        7.71167       -1.79208
F         -7.22068        5.61017       -0.24999
F         -5.55684        6.75994        0.62041
F         -5.53553        4.01699       -1.60851
F         -5.26693        4.08036        0.57263
F         -3.26433        5.41594       -2.00849
F         -3.07214        3.55424       -0.86036
F         -2.83256        6.92902        0.16254
F         -1.28649        5.42856       -0.29934
F         -3.64733        5.43819        2.34085
F         -1.54841        6.09947        2.26977
F         -2.91694        2.87141        1.80400
F         -1.85826        3.79388        3.50869
H          2.31440       -1.99684        1.24262
H          4.04263       -1.54884        1.09028
H          3.10981       -2.06444       -0.36173
H          4.92097       -0.72255       -0.94042
H          6.17468        0.94321       -2.25396
H          5.38459        3.30656       -2.39501
H          3.30352        3.97502       -1.20507
H          2.73664        3.70079        1.67973
H          0.66089        4.53004        2.81944
H         -1.58476        2.14710        0.23993
H         -0.90928        0.83083       -1.32955
H          0.70799        0.15840       -1.12731
H         -0.24624        3.67410       -2.07583
H          0.48234        4.79624       -4.14835
H          1.75925        3.50832       -5.87069
H          2.24694        1.10894       -5.50361
H          2.12992       -0.84868       -4.28629
H          0.69642       -1.05836       -3.27090
H          2.26055       -0.64658       -2.53594
