103

C         -2.31585        3.36750        0.24880
C         -1.65355        2.01553        0.19128
C         -0.26708        1.87027        0.33432
C          0.33148        0.61206        0.28111
C         -0.40512       -0.56516        0.07823
C         -1.79315       -0.40096       -0.07079
C         -2.40647        0.85081       -0.00991
O         -2.60173       -1.54520       -0.20605
C         -3.19174       -1.73867       -1.48404
N         -3.52333       -3.14180       -1.61608
C         -4.50422       -3.76060       -0.90495
N         -5.52407       -3.05179       -0.39602
C         -6.68624       -3.62192        0.28637
C         -6.45460       -3.96772        1.76780
O         -7.66809       -4.49474        2.24062
Si        -7.80593       -5.56524        3.54818
C         -9.64830       -5.80068        3.74413
C         -6.94491       -7.17910        3.10297
C         -7.01717       -4.78727        5.06356
N         -4.48202       -5.08589       -0.75718
C         -3.43644       -6.03553       -1.12645
C         -3.48425       -7.17087       -0.08505
O         -4.84042       -7.52388        0.20508
C         -5.41167       -8.59253       -0.57672
C         -5.02832       -9.97685       -0.08570
O         -3.65755      -10.18695       -0.41104
C         -3.07613      -11.39891       -0.08961
C         -3.75869      -12.49057        0.45566
C         -3.06297      -13.67756        0.69894
C         -1.69616      -13.82005        0.41674
C         -1.03621      -12.69338       -0.09966
C         -1.70822      -11.50152       -0.35611
C         -0.98016      -15.15508        0.67813
C         -1.68428      -16.33197       -0.07342
C         -1.68030      -16.50477       -1.62463
C         -0.33440      -17.04941       -2.14796
C         -2.76191      -17.56444       -1.93039
C         -2.03811      -15.21838       -2.39298
C          0.52295      -15.07615        0.35617
C         -1.09960      -15.46767        2.19315
C          0.31759       -1.90594        0.05826
C         -0.13897       -2.86247        1.17574
C          0.29733       -2.59067       -1.32184
H         -1.70349        4.08882        0.80394
H         -3.30145        3.31418        0.73032
H         -2.46684        3.77507       -0.76275
H          0.35261        2.75265        0.50233
H          1.41277        0.53068        0.41105
H         -3.49416        0.91529       -0.09114
H         -2.49014       -1.48068       -2.29166
H         -4.09936       -1.12280       -1.62300
H         -2.73677       -3.73700       -1.85931
H         -5.46970       -2.04362       -0.47412
H         -7.03719       -4.51574       -0.25303
H         -7.49905       -2.88861        0.21580
H         -6.16599       -3.05308        2.31848
H         -5.61466       -4.68288        1.86905
H        -10.09508       -6.21075        2.82805
H        -10.14672       -4.84861        3.97111
H         -9.86377       -6.49855        4.56551
H         -7.41439       -7.64307        2.22394
H         -7.02317       -7.88963        3.93865
H         -5.87612       -7.04759        2.88426
H         -7.51001       -3.83946        5.32113
H         -5.94662       -4.58615        4.91315
H         -7.10503       -5.45681        5.93112
H         -5.24927       -5.54464       -0.26004
H         -2.44074       -5.56780       -1.08804
H         -3.60375       -6.41314       -2.14774
H         -3.06191       -6.81209        0.86512
H         -2.89965       -8.03479       -0.42596
H         -5.14785       -8.48600       -1.64329
H         -6.49923       -8.46935       -0.47639
H         -5.67438      -10.71997       -0.58959
H         -5.19046      -10.05253        1.00444
H         -4.82158      -12.43932        0.68931
H         -3.62421      -14.51605        1.11348
H          0.02777      -12.73985       -0.32681
H         -1.18264      -10.64137       -0.77300
H         -2.73969      -16.31573        0.24342
H         -1.27341      -17.26506        0.34904
H         -0.03111      -17.95444       -1.60082
H          0.47961      -16.31934       -2.06531
H         -0.42267      -17.31805       -3.21086
H         -2.56519      -18.50551       -1.39548
H         -2.79261      -17.79192       -3.00601
H         -3.75987      -17.21018       -1.63211
H         -1.27057      -14.44082       -2.28568
H         -2.99152      -14.79021       -2.05232
H         -2.13477      -15.44169       -3.46615
H          0.72765      -14.76995       -0.67700
H          0.98865      -16.05937        0.50655
H          1.03169      -14.36614        1.02453
H         -2.14356      -15.61825        2.50035
H         -0.68763      -14.64255        2.79114
H         -0.54352      -16.38337        2.44100
H          1.37327       -1.66239        0.26093
H         -1.17870       -3.18623        1.03025
H         -0.07264       -2.37902        2.15941
H          0.50177       -3.75602        1.19638
H         -0.69620       -3.00200       -1.55684
H          1.00562       -3.43076       -1.34344
H          0.57371       -1.89347       -2.12385
