60

O          2.54094        1.38468       -2.99829
C          2.12026        0.95913       -1.70721
C          2.73432       -0.39946       -1.42525
N          4.20846       -0.42138       -1.34111
C          4.98847        0.60243       -1.45601
C          6.43441        0.27163       -1.35380
C          6.42654       -1.26375       -1.12449
C          4.94714       -1.72452       -1.15125
C          4.52839       -2.50597        0.10641
C          3.27508       -3.38664        0.00736
C          3.09657       -4.36580        1.18643
C          2.98392       -3.62632        2.53341
C          2.80667       -4.53858        3.76508
C          2.99881       -3.79390        5.05712
C          2.05895       -3.41034        5.94106
C          0.58384       -3.67239        5.78838
C          2.43899       -2.66930        7.19644
C          1.88993       -5.27243        0.91302
C          7.28041        0.73963       -2.56711
C          7.31533        2.26057       -2.75940
C          8.30804        2.70737       -3.86139
N          7.91276        2.45170       -5.23221
O          5.99889        2.76424       -3.02744
H          2.04855        2.18401       -3.24301
H          1.02626        0.82441       -1.65427
H          2.39971        1.68501       -0.92027
H          2.45398       -1.11581       -2.21243
H          2.34815       -0.78371       -0.47166
H          4.59701        1.60138       -1.64611
H          6.82642        0.80751       -0.46958
H          6.88086       -1.51652       -0.15902
H          7.00549       -1.77669       -1.90213
H          4.72003       -2.32479       -2.04779
H          4.47248       -1.80563        0.95553
H          5.38243       -3.16753        0.32692
H          3.32862       -3.97092       -0.92752
H          2.35720       -2.78048       -0.06478
H          4.00010       -5.00323        1.22850
H          2.13714       -2.91709        2.49258
H          3.88721       -3.01557        2.69685
H          3.55223       -5.35162        3.70742
H          1.82116       -5.02263        3.73361
H          4.03833       -3.53061        5.28735
H          0.32647       -4.20501        4.86536
H          0.02309       -2.72355        5.80012
H          0.20423       -4.26218        6.63804
H          3.52247       -2.50718        7.26486
H          2.11821       -3.22575        8.09206
H          1.93707       -1.68913        7.24663
H          0.95407       -4.69149        0.90719
H          1.78997       -6.05541        1.67447
H          1.98111       -5.77197       -0.06201
H          6.90523        0.25023       -3.48199
H          8.30403        0.36894       -2.39918
H          7.62994        2.73261       -1.81296
H          9.28400        2.23289       -3.66815
H          8.45923        3.79067       -3.75728
H          7.70403        1.48969       -5.48010
H          7.24623        3.10255       -5.63476
H          5.87625        2.69023       -3.99394
