53

C          4.32921        1.44074       -4.40077
C          4.69211        0.16568       -3.63218
C          5.79243        0.43207       -2.61350
O          6.08237       -0.76933       -1.81929
C          7.03397       -1.58640       -2.28962
O          7.67225       -1.43435       -3.31315
C          7.25244       -2.75904       -1.33182
C          7.86783       -3.93633       -2.08596
N          8.32547       -5.00753       -1.10487
C          7.19527       -6.01856       -1.01270
C          6.78382       -6.13775       -2.47391
C          6.89194       -4.69501       -3.04021
C          7.33959       -4.64856       -4.50994
C          6.38252       -5.33694       -5.49020
C          4.99193       -4.69555       -5.58184
C          4.11740       -5.32143       -6.67786
N          4.74403       -5.17636       -7.99697
C          7.63336       -7.27063       -0.26196
C          8.16871       -6.93896        1.12775
O          8.56692       -5.82207        1.44739
O          8.17283       -8.00046        1.92541
C          8.72261       -7.80962        3.26447
H          3.52800        1.24356       -5.12433
H          5.19108        1.83478       -4.95772
H          3.97586        2.23231       -3.72444
H          5.03059       -0.61346       -4.33315
H          3.80734       -0.22848       -3.10823
H          5.48130        1.17190       -1.86481
H          6.72251        0.76223       -3.09546
H          6.30051       -3.01853       -0.84782
H          7.93299       -2.39822       -0.54169
H          8.75875       -3.58732       -2.62431
H          8.56533       -4.71349       -0.13539
H          9.16083       -5.47566       -1.48077
H          6.41206       -5.50489       -0.43335
H          5.77622       -6.55657       -2.57804
H          7.47389       -6.81432       -3.00654
H          5.90742       -4.21051       -2.95226
H          8.33808       -5.11609       -4.58619
H          7.47159       -3.59428       -4.79834
H          6.27558       -6.40687       -5.23722
H          6.83190       -5.31769       -6.49292
H          5.10121       -3.61366       -5.77954
H          4.44689       -4.77674       -4.62570
H          3.10063       -4.88779       -6.61191
H          4.00949       -6.40020       -6.47868
H          4.64582       -4.22020       -8.34168
H          4.29114       -5.77899       -8.68298
H          8.41960       -7.81477       -0.81448
H          6.78970       -7.96877       -0.17747
H          8.66114       -8.79415        3.73446
H          8.12338       -7.07338        3.81272
H          9.76263       -7.46980        3.19668
