79

C          1.03544        1.94966       -1.42493
O          1.66094        0.83547       -0.71879
C          2.59426        0.16745       -1.39001
O          2.93722        0.42296       -2.53842
C          3.19161       -0.93485       -0.52119
C          4.04007       -1.96316       -1.22569
N          4.40285       -1.75174       -2.50251
N          5.12965       -2.56384       -3.26622
C          5.55205       -3.70343       -2.71599
C          5.27141       -4.03219       -1.35306
C          4.49293       -3.13420       -0.61901
C          5.69770       -5.32876       -0.74731
C          4.49744       -6.33604       -0.72693
O          3.40309       -5.92166       -0.37902
C          4.72543       -7.74773       -1.13192
C          3.58744       -8.56707       -1.28084
C          3.72228       -9.88988       -1.68766
C          4.99462      -10.41965       -1.93615
C          6.13043       -9.62241       -1.77255
C          5.99941       -8.29092       -1.37957
C          6.26123       -4.63338       -3.65401
C          5.29475       -5.72255       -4.17940
C          6.01488       -6.92530       -4.78969
C          5.05573       -8.06897       -5.13145
C          5.76824       -9.34873       -5.57509
C          4.81364      -10.51939       -5.82721
C          5.53075      -11.80359       -6.25307
C          4.58878      -12.98121       -6.52254
C          5.31483      -14.22949       -7.03361
C          4.38489      -15.41222       -7.32343
C          5.11989      -16.61678       -7.91763
C          4.18466      -17.79506       -8.21907
N          4.87184      -18.92501       -8.83281
C          5.07766      -19.09245      -10.18361
C          5.87464      -20.21387      -10.36941
C          6.16772      -20.73712       -9.08552
C          5.54035      -19.91982       -8.15497
H          0.30140        2.34905       -0.72109
H          0.54906        1.58674       -2.33788
H          1.79060        2.70334       -1.67738
H          2.38137       -1.44010        0.02446
H          3.79929       -0.44042        0.25648
H          4.04689       -0.87632       -2.94132
H          4.22738       -3.34224        0.41660
H          5.97460       -5.18453        0.30876
H          6.56441       -5.74353       -1.26670
H          2.60671       -8.13625       -1.07972
H          2.83676      -10.51287       -1.81408
H          5.10087      -11.45638       -2.25727
H          7.12140      -10.03815       -1.95479
H          6.90083       -7.69079       -1.25651
H          7.11170       -5.10995       -3.14363
H          6.66844       -4.04668       -4.48713
H          4.60975       -5.26320       -4.90949
H          4.65423       -6.08119       -3.35797
H          6.76629       -7.29384       -4.06998
H          6.57818       -6.61530       -5.68569
H          4.35278       -7.74278       -5.91685
H          4.43817       -8.29140       -4.24495
H          6.50116       -9.63806       -4.80155
H          6.35574       -9.15022       -6.48806
H          4.08164      -10.23494       -6.60313
H          4.22279      -10.70979       -4.91351
H          6.26291      -12.08982       -5.47678
H          6.12404      -11.60044       -7.16180
H          3.82759      -12.67597       -7.26184
H          4.03143      -13.22738       -5.60112
H          6.08062      -14.53764       -6.30042
H          5.86740      -13.97132       -7.95390
H          3.59037      -15.08787       -8.01854
H          3.86946      -15.71148       -6.39370
H          5.91104      -16.95611       -7.22913
H          5.62796      -16.32243       -8.85045
H          3.37975      -17.48103       -8.90066
H          3.70038      -18.15058       -7.29693
H          4.63560      -18.40799      -10.90071
H          6.19165      -20.61293      -11.32738
H          6.75689      -21.61956       -8.85822
H          5.51092      -19.96999       -7.07103
