51

O          1.10069       -1.71360        0.76689
N          2.41356       -1.17001        0.50167
C          2.38612       -1.00399       -0.98177
C          3.75966       -0.55753       -1.50324
N          4.34757       -1.82633       -1.94565
C          3.43113       -2.81090       -2.00108
N          3.61072       -4.09129       -2.36127
C          4.69516       -4.60301       -3.24213
C          5.97304       -3.77671       -3.37657
C          7.01807       -4.53340       -4.20606
S          8.44757       -3.44557       -4.42742
O          8.08751       -2.38884       -5.34999
O          8.97396       -3.15780       -3.11689
O          9.48253       -4.44420       -5.16014
C          2.45091       -5.01570       -2.21409
C          2.81504       -6.48922       -2.01551
C          1.56800       -7.28796       -1.61476
C          1.83921       -8.79985       -1.50954
N          0.68291       -9.53597       -1.03909
C          0.40474       -9.81845        0.28446
C         -0.85106      -10.39128        0.34715
C         -1.35879      -10.44858       -0.98169
C         -0.39737       -9.90983       -1.81508
N          2.23172       -2.29979       -1.61324
O          2.40761        0.19038        0.94950
H          1.22739       -2.20253        1.59919
H          1.56595       -0.32319       -1.25226
H          4.35710       -0.09469       -0.71029
H          3.66301        0.14656       -2.34200
H          5.33455       -1.95129       -2.11970
H          4.25399       -4.76143       -4.24193
H          4.96210       -5.59106       -2.84760
H          6.41777       -3.58240       -2.38751
H          5.77304       -2.82144       -3.88351
H          6.65475       -4.79282       -5.21000
H          7.38278       -5.43865       -3.70180
H          9.59554       -4.13865       -6.08177
H          1.78600       -4.90671       -3.08893
H          1.89507       -4.70177       -1.32020
H          3.58341       -6.58013       -1.22978
H          3.23677       -6.91645       -2.93819
H          0.75980       -7.12481       -2.34583
H          1.18779       -6.93362       -0.64324
H          2.67072       -8.99068       -0.81429
H          2.14090       -9.20224       -2.48936
H          1.13376       -9.61051        1.06159
H         -1.34040      -10.74977        1.24689
H         -2.31338      -10.85758       -1.29645
H         -0.38161       -9.77752       -2.89256
H          1.40629       -2.85810       -1.43728
H          2.88539        0.15152        1.79726
