46

C          0.83541        0.37886        0.08179
C          2.35530        0.35308        0.26464
C          3.07846        1.42694       -0.55655
C          4.60243        1.40154       -0.38446
C          5.31026        2.46050       -1.24124
C          6.81650        2.42160       -1.06985
O          7.39632        3.40703       -1.98635
C          8.75851        3.52942       -1.88481
S          9.15789        5.11066       -2.81156
C         11.00388        5.14694       -2.79141
C         11.54546        6.30326       -3.62856
C         13.07714        6.38364       -3.50360
C         13.67020        7.52428       -4.34054
C         15.19418        7.63476       -4.20786
C         15.78579        8.77010       -5.04713
C          8.78524        4.69472       -4.39728
C          8.45317        4.48491       -5.54302
H          0.34791       -0.40248        0.68005
H          0.55567        0.21467       -0.96936
H          0.41087        1.34578        0.38990
H          2.74393       -0.64031       -0.01626
H          2.60146        0.48410        1.33177
H          2.69546        2.42334       -0.27531
H          2.83099        1.29748       -1.62466
H          4.98175        0.39954       -0.64926
H          4.85277        1.55348        0.67950
H          4.94634        3.46658       -0.97943
H          5.07324        2.30052       -2.30498
H          7.22882        1.42882       -1.32116
H          7.11944        2.68038       -0.03936
H          9.34504        2.72323       -2.36530
H          9.13447        3.73327       -0.86064
H         11.35424        4.16274       -3.13131
H         11.22644        5.27100       -1.71942
H         11.09492        7.25181       -3.29555
H         11.26447        6.16177       -4.68354
H         13.52285        5.42479       -3.81817
H         13.35174        6.52215       -2.44427
H         13.20619        8.47892       -4.03808
H         13.40343        7.37667       -5.40128
H         15.65513        6.67723       -4.50262
H         15.45519        7.78428       -3.14685
H         15.57895        8.62740       -6.11775
H         16.87540        8.82575       -4.92518
H         15.36918        9.74484       -4.75445
H          8.16544        4.29159       -6.55946
