92

C         16.66237       -1.27147       -7.75265
C         15.66811       -1.17897       -6.59250
C         16.06447       -2.03743       -5.38615
C         15.07811       -1.95403       -4.21715
C         15.47759       -2.82089       -3.01863
C         14.49798       -2.73610       -1.84424
C         14.89488       -3.61415       -0.65275
C         13.91965       -3.51662        0.52410
C         14.30116       -4.40636        1.71293
C         13.31960       -4.28002        2.88243
C         13.67052       -5.18895        4.06426
C         12.65039       -5.01572        5.22196
C         12.94400       -5.93022        6.35896
N         12.52505       -7.17312        6.41105
C         12.83513       -8.00554        7.60942
C         13.88572       -7.15955        8.39374
S         13.90497       -5.46590        7.69020
C         13.43291       -9.35429        7.14896
C         14.59280       -9.21454        6.15509
C         15.37129      -10.52094        5.94060
P         16.95653      -10.17298        5.10399
O         17.65074       -8.98503        5.65191
O         17.85464      -11.49115        5.24777
C         17.53868      -12.76675        4.61867
C         18.35305      -13.84105        5.30962
O         16.49416      -10.06528        3.56061
C         17.31058       -9.29830        2.61729
C         18.45304      -10.11721        2.04158
C         11.50633       -8.13123        8.39803
C         11.56931       -8.92322        9.71941
C         10.37211       -8.60376       10.61873
N         10.56584       -9.16052       11.94023
C          9.45611       -8.94007       12.86257
C          9.68712       -9.73571       14.14351
O          9.79046      -11.14277       13.88366
O         11.70524      -10.33166        9.49638
H         16.35091       -0.64782       -8.60176
H         16.75602       -2.30542       -8.11714
H         17.66531       -0.93819       -7.44667
H         14.66592       -1.48275       -6.93980
H         15.56993       -0.12760       -6.27293
H         17.06814       -1.73442       -5.03861
H         16.16292       -3.09005       -5.70613
H         14.07328       -2.25275       -4.56461
H         14.98399       -0.90277       -3.89241
H         16.48453       -2.52566       -2.67469
H         15.56691       -3.87254       -3.34377
H         13.48869       -3.02332       -2.18822
H         14.41551       -1.68628       -1.51217
H         15.90705       -3.33360       -0.31251
H         14.96703       -4.66565       -0.98239
H         12.90485       -3.78430        0.18110
H         13.85767       -2.46709        0.86064
H         15.31739       -4.14803        2.05666
H         14.34800       -5.45907        1.38336
H         12.29955       -4.51538        2.53227
H         13.29057       -3.23165        3.22497
H         14.68164       -4.96450        4.43747
H         13.68128       -6.24322        3.74254
H         11.63122       -5.21570        4.85515
H         12.67079       -3.97639        5.57935
H         11.92883       -7.55036        5.67522
H         14.90147       -7.56198        8.30290
H         13.63244       -7.08040        9.45642
H         12.62556       -9.97347        6.72570
H         13.75689       -9.89186        8.05199
H         15.31557       -8.45873        6.50123
H         14.22574       -8.85077        5.18195
H         14.78717      -11.26424        5.37899
H         15.64268      -10.97307        6.90737
H         17.78661      -12.69393        3.54982
H         16.45879      -12.96895        4.70472
H         19.42648      -13.62464        5.23446
H         18.16315      -14.81437        4.83643
H         18.08791      -13.91550        6.37240
H         17.68074       -8.40094        3.13412
H         16.60425       -8.99307        1.83398
H         19.17408      -10.40329        2.81885
H         18.98941       -9.51800        1.29229
H         18.08193      -11.02382        1.54561
H         10.74976       -8.59505        7.74300
H         11.15261       -7.10944        8.61360
H         12.47709       -8.65441       10.28535
H          9.43986       -8.95635       10.10745
H         10.26991       -7.50858       10.70944
H         10.75133      -10.16521       11.88543
H          8.47187       -9.22670       12.42612
H          9.39343       -7.86623       13.10959
H          8.89046       -9.51859       14.87371
H         10.64974       -9.44665       14.58885
H          8.89512      -11.50472       13.79579
H         10.83790      -10.68476        9.23377
