56

C          1.31626       -1.22613       -0.75235
O          1.39063        0.14560       -0.34243
C          2.32603        0.94962       -0.94119
C          3.21357        0.51347       -1.93191
C          4.13668        1.40637       -2.48327
C          4.18362        2.73431       -2.06102
C          3.29448        3.16414       -1.07541
C          2.36356        2.29355       -0.49793
C          1.45326        2.81888        0.58537
N          0.00781        2.70977        0.27567
C         -0.64025        1.93389        1.15947
N         -1.92573        1.59369        1.06506
C         -2.67174        0.79069        2.02464
C         -4.16343        1.03278        1.80824
C         -4.72990        2.37687        1.63400
O         -4.51712        1.50087        0.49609
N          0.17341        1.59241        2.16594
C          1.54435        2.10555        1.98420
C          1.95116        3.04187        3.12435
C          3.40863        3.51061        3.04613
C          3.74295        4.50915        4.15763
C          5.20274        4.98749        4.12575
N          5.47964        5.98624        5.14257
C          5.32847        7.34873        4.98044
C          5.52402        7.95346        6.20797
C          5.79275        6.92179        7.15068
C          5.75316        5.71974        6.46896
H          2.25703       -1.75815       -0.54473
H          1.06874       -1.31164       -1.82118
H          0.51054       -1.66845       -0.15713
H          3.19517       -0.51800       -2.27855
H          4.82247        1.05129       -3.25287
H          4.90231        3.42874       -2.49412
H          3.32166        4.20228       -0.73600
H          1.68816        3.88532        0.72217
H         -0.35871        2.92415       -0.64457
H         -2.47125        1.85528        0.24015
H         -2.40728        1.07303        3.05646
H         -2.45180       -0.28169        1.89051
H         -4.80632        0.23924        2.20065
H         -4.07719        3.25447        1.67030
H         -5.77867        2.55249        1.88320
H         -0.08595        0.94901        2.90215
H          2.23801        1.25415        1.92103
H          1.79193        2.51761        4.08143
H          1.26980        3.90976        3.13015
H          3.60805        3.97522        2.06518
H          4.07794        2.63536        3.10537
H          3.53913        4.05885        5.14238
H          3.08550        5.39004        4.07918
H          5.44087        5.42588        3.14441
H          5.88917        4.13892        4.27146
H          5.11251        7.77026        4.00365
H          5.49745        9.02110        6.40029
H          6.01088        7.04501        8.20649
H          5.90976        4.70113        6.81001
