74

C          0.55280        0.19287        0.36825
C          2.08042        0.24917        0.28278
C          2.66105       -0.65994       -0.80619
C          4.18945       -0.61138       -0.90336
C          4.76170       -1.52100       -1.99552
C          6.29019       -1.48341       -2.09507
C          6.85287       -2.39748       -3.18840
C          8.38278       -2.39190       -3.27265
C          8.93480       -3.32518       -4.35474
C         10.46527       -3.38339       -4.40099
C         10.99943       -4.34929       -5.46358
C         12.52430       -4.49425       -5.45356
C         13.02970       -5.51121       -6.48019
C         14.56152       -5.71918       -6.42060
C         15.00012       -6.77870       -7.39814
C         15.46645       -6.34772       -8.66560
C         15.95214       -7.24109       -9.58856
C         15.84167       -8.62941       -9.33029
C         15.19303       -9.09811       -8.12912
C         14.91918       -8.15387       -7.09342
C         14.74259       -8.57268       -5.64428
C         16.08777       -8.47973       -4.89278
C         14.89208      -10.52783       -8.07390
C         15.58514      -11.37408       -8.94229
N         16.36339      -10.85421       -9.93644
C         16.44756       -9.54805      -10.20197
N         13.95107      -11.05387       -7.21771
C         13.90386      -12.49547       -6.99990
C         12.64210      -10.39800       -7.08741
H          0.16739        0.85635        1.15473
H          0.20253       -0.82590        0.59256
H          0.08806        0.49871       -0.58109
H          2.51506       -0.02960        1.25779
H          2.40132        1.28815        0.09638
H          2.22462       -0.38201       -1.78208
H          2.34042       -1.70050       -0.61992
H          4.62642       -0.89175        0.07142
H          4.51078        0.42875       -1.08892
H          4.32582       -1.23825       -2.97002
H          4.43551       -2.55997       -1.81092
H          6.72630       -1.76917       -1.12151
H          6.62019       -0.44602       -2.27984
H          6.43136       -2.10098       -4.16513
H          6.50433       -3.43074       -3.01230
H          8.80150       -2.68333       -2.29321
H          8.73786       -1.36316       -3.45827
H          8.54944       -3.01203       -5.34098
H          8.54157       -4.34391       -4.18802
H         10.84671       -3.68689       -3.41015
H         10.87013       -2.37303       -4.58414
H         10.66700       -4.01863       -6.46288
H         10.54303       -5.34317       -5.30739
H         12.85522       -4.80195       -4.44616
H         12.99485       -3.51409       -5.64133
H         12.74792       -5.19589       -7.49838
H         12.52689       -6.47981       -6.31461
H         14.85210       -5.97377       -5.39279
H         15.06513       -4.77125       -6.65950
H         15.50704       -5.27678       -8.86984
H         16.42844       -6.90114      -10.50880
H         14.39211       -9.60353       -5.56678
H         13.99018       -7.94465       -5.14979
H         16.82979       -9.15609       -5.33922
H         15.95427       -8.77001       -3.84232
H         16.50870       -7.46583       -4.91318
H         15.49856      -12.45500       -8.93005
H         16.84800      -11.50920      -10.54780
H         17.02261       -9.24801      -11.07538
H         14.90695      -12.88378       -6.78325
H         13.47289      -13.04575       -7.85708
H         13.27171      -12.69132       -6.12568
H         12.69932       -9.35171       -7.39917
H         12.29434      -10.43987       -6.04656
H         11.90376      -10.91171       -7.72547
