54

C          0.76302       -0.45383        0.13600
C          2.28389       -0.32177        0.24566
C          2.82749        0.97721       -0.35962
C          4.35373        1.09162       -0.29924
C          4.89762        2.39743       -0.88774
C          6.42802        2.46750       -0.91287
C          6.97141        3.78423       -1.47696
C          8.49742        3.81053       -1.61221
C          9.03628        5.13931       -2.15331
C         10.55332        5.13855       -2.37063
C         11.08226        6.49388       -2.84913
C         12.60939        6.47553       -3.09474
C         13.14115        7.81122       -3.46422
N         13.71566        8.64456       -2.63669
N         13.97853        9.77718       -3.37538
C         13.57104        9.66202       -4.65098
N         13.62879       10.57281       -5.62005
C         14.28815       11.87637       -5.49450
C         13.84107       12.74331       -6.66677
O         14.06030       11.95739       -7.83978
N         13.03074        8.40469       -4.73256
I         12.29184        7.59650       -6.46931
H          0.40581       -1.39183        0.58267
H          0.43573       -0.44098       -0.91456
H          0.25125        0.37389        0.64943
H          2.76457       -1.18140       -0.25151
H          2.58449       -0.38116        1.30550
H          2.37250        1.83946        0.15941
H          2.49934        1.05304       -1.41162
H          4.80195        0.23677       -0.83605
H          4.68818        0.99666        0.74884
H          4.49862        3.25229       -0.31366
H          4.51417        2.52085       -1.91622
H          6.81811        1.62593       -1.51186
H          6.82077        2.31759        0.10797
H          6.64410        4.62040       -0.83463
H          6.51853        3.96989       -2.46696
H          8.81617        2.98854       -2.27673
H          8.95919        3.60258       -0.63140
H          8.76677        5.95273       -1.45734
H          8.53234        5.37681       -3.10675
H         10.82029        4.35735       -3.10327
H         11.06203        4.86259       -1.43111
H         10.85735        7.26933       -2.09978
H         10.55790        6.79032       -3.77313
H         12.86623        5.74209       -3.87629
H         13.13470        6.16902       -2.17957
H         14.45862       10.55565       -2.93737
H         13.44664       10.28065       -6.58289
H         15.38401       11.75230       -5.50858
H         13.99085       12.36002       -4.55194
H         14.43843       13.66930       -6.67153
H         12.77512       13.00879       -6.55696
H         13.77191       12.45325       -8.62136
