73

C         -0.27334       -0.54477       -0.55847
C          1.20689       -0.51578       -0.94759
C          2.08036       -1.42326       -0.07354
C          3.56327       -1.40444       -0.45825
C          4.42679       -2.34331        0.39082
C          5.90200       -2.35513       -0.02535
C          6.74200       -3.35658        0.77771
C          8.18169       -3.39412        0.30440
O          8.87260       -4.45759        1.05111
C         10.09350       -4.79002        0.60873
O         10.68971       -4.25961       -0.30466
C         10.63903       -5.97602        1.42593
C         12.02987       -6.34345        0.99349
C         12.17031       -7.52606        0.24380
N         13.29762       -7.95050       -0.30879
N         14.34282       -7.16490       -0.08267
C         14.40284       -6.00606        0.60748
C         13.18116       -5.53984        1.18831
C         13.16280       -4.26411        1.86330
N         14.06781       -3.31211        1.85058
N         13.59002       -2.27069        2.59008
C         12.39754       -2.64323        3.03285
O         12.06202       -3.89858        2.61435
S         11.34826       -1.70292        4.01660
C          9.89328       -2.80894        4.19872
C          8.80196       -2.04891        4.95549
C          7.53662       -2.90299        5.12377
C          6.41697       -2.16071        5.85719
C         15.72657       -5.36853        0.59349
C         16.30423       -5.03870       -0.64593
C         17.56390       -4.44825       -0.70578
C         18.25942       -4.20440        0.48091
C         17.71520       -4.54585        1.72092
C         16.44859       -5.13560        1.79118
O         15.84523       -5.55151        2.93205
C         16.48751       -5.27050        4.18580
H         -0.87183        0.11158       -1.20468
H         -0.42115       -0.21259        0.47981
H         -0.68858       -1.56018       -0.64233
H          1.58457        0.51897       -0.88826
H          1.31689       -0.81653       -2.00331
H          1.70149       -2.45892       -0.13515
H          1.97142       -1.12566        0.98444
H          3.95084       -0.37391       -0.37662
H          3.66634       -1.68200       -1.52198
H          4.02414       -3.36878        0.32034
H          4.34603       -2.05890        1.45463
H          6.32432       -1.34104        0.08170
H          5.97223       -2.60123       -1.09892
H          6.30974       -4.36521        0.67877
H          6.70998       -3.10364        1.85029
H          8.71453       -2.44893        0.48887
H          8.26242       -3.62458       -0.76703
H          9.96325       -6.82873        1.26983
H         10.58136       -5.72034        2.49099
H         11.30767       -8.16777        0.05835
H         15.21673       -7.50296       -0.49439
H         10.20888       -3.70691        4.74781
H          9.55124       -3.10159        3.19767
H          8.55302       -1.12247        4.41239
H          9.17651       -1.74207        5.94568
H          7.79009       -3.82687        5.66995
H          7.18175       -3.22391        4.12996
H          6.72801       -1.86580        6.86970
H          5.52353       -2.79091        5.95468
H          6.12352       -1.24683        5.32036
H         15.73069       -5.19360       -1.56199
H         17.99030       -4.16821       -1.66768
H         19.24574       -3.74110        0.44749
H         18.28481       -4.35598        2.62850
H         15.81388       -5.66475        4.95255
H         16.61809       -4.18758        4.32666
H         17.45821       -5.78309        4.25705
