59

C         11.57294       -1.61380       -3.12911
C         10.72209       -0.89247       -2.08033
C         11.55503       -0.35240       -0.91291
C         10.75168        0.40102        0.15474
N          9.72515       -0.42052        0.81507
C         10.01189       -1.30113        1.78953
O         11.15555       -1.45439        2.25015
C          8.84755       -2.17012        2.30411
N          8.73117       -2.20999        3.75716
C          9.52168       -2.93112        4.58149
N          9.06994       -3.26377        5.80907
C          7.66403       -3.34092        6.21143
C          7.04216       -2.04650        6.72574
O          6.91769       -1.13351        5.62113
N         10.73272       -3.31158        4.15601
C         11.50357       -4.43767        4.66102
C         12.65701       -4.04280        5.58477
O         12.10172       -3.56616        6.83770
C         12.54513       -2.34281        7.28362
O         13.18600       -1.56472        6.61741
C         12.11911       -2.11082        8.71567
S         10.30357       -1.98600        8.92169
C         13.53748       -5.26052        5.88339
O         14.51329       -4.99101        6.90130
C         15.62194       -4.29382        6.50121
O         15.80875       -3.92405        5.36263
C         16.55609       -4.05140        7.66481
S         15.90216       -2.80775        8.84013
H         10.95533       -1.99610       -3.95232
H         12.10880       -2.46778       -2.68935
H         12.32583       -0.94027       -3.56314
H          9.95401       -1.58695       -1.69853
H         10.17440       -0.06086       -2.55611
H         12.31793        0.34639       -1.29290
H         12.10895       -1.17289       -0.42993
H         10.22936        1.26293       -0.28365
H         11.42322        0.77487        0.93908
H          8.77292       -0.37025        0.47015
H          9.01909       -3.19023        1.92304
H          7.88005       -1.83204        1.91042
H          8.00650       -1.64412        4.21639
H          9.77193       -3.37379        6.54362
H          7.60039       -4.09208        7.01047
H          7.07646       -3.71693        5.36082
H          7.66647       -1.61284        7.52291
H          6.04936       -2.28192        7.14449
H          6.58756       -0.28012        5.94161
H         11.11758       -2.70416        3.39214
H         11.92094       -4.96875        3.79202
H         10.82718       -5.13336        5.17949
H         13.25216       -3.23274        5.14109
H         12.60241       -1.20382        9.08998
H         12.42739       -2.96470        9.33259
H         10.17406       -0.77961        8.31949
H         14.03693       -5.58014        4.95681
H         12.93738       -6.08566        6.28998
H         17.53085       -3.73710        7.27908
H         16.67178       -4.96646        8.25952
H         15.93314       -1.76292        7.97829
