80

C          1.31373       -1.06141       -0.58771
C          2.81966       -0.78964       -0.61612
C          3.25245        0.09150       -1.79349
C          4.76177        0.34930       -1.84644
C          5.18396        1.24864       -3.01401
C          6.69829        1.48212       -3.07822
C          7.09807        2.41257       -4.21020
O          8.53138        2.55449       -4.20087
C          9.03671        3.39601       -5.21953
C         10.55278        3.34956       -5.10375
C         11.32704        4.15748       -6.15401
N         12.75435        3.89827       -6.15414
C         13.07775        2.48329       -6.25310
C         12.47051        1.57273       -5.10313
N         10.96555        1.89336       -5.18398
C         12.83517        1.31743       -3.56619
C         12.36444        2.39049       -2.51091
C         12.47700        1.90273       -1.04998
C         13.06775        3.75071       -2.59924
C         12.12325       -0.03548       -3.24255
O         10.67699        0.02087       -3.30325
C         14.32990        1.00538       -3.40359
C         14.48185        2.19498       -6.93135
C         15.77082        2.41601       -6.06829
C         17.07603        2.26061       -6.87201
C         15.81405        3.75604       -5.31909
C         14.45466        0.75077       -7.48644
O         14.46259       -0.23711       -6.44183
C         14.50773        3.09189       -8.19377
H          1.03502       -1.68905        0.26957
H          0.98399       -1.58070       -1.49982
H          0.73917       -0.12627       -0.51461
H          3.36638       -1.74702       -0.65857
H          3.12654       -0.30877        0.32822
H          2.71803        1.05628       -1.74086
H          2.92999       -0.38001       -2.73857
H          5.29474       -0.61519       -1.91647
H          5.08835        0.80850       -0.89695
H          4.66501        2.21883       -2.92966
H          4.84009        0.80086       -3.96229
H          7.22067        0.51952       -3.20883
H          7.05163        1.91197       -2.12641
H          6.63240        3.40835       -4.08802
H          6.77816        2.00912       -5.18988
H          8.69386        4.44184       -5.10064
H          8.70372        3.05392       -6.22314
H         10.83271        3.68786       -4.10100
H         11.14547        5.22762       -5.98468
H         10.93448        3.92331       -7.16162
H         13.26106        4.39517       -5.42725
H         12.41970        2.15019       -7.08514
H         12.54116        0.56311       -5.53225
H         10.48423        1.33109       -4.43218
H         10.61944        1.52379       -6.08004
H         11.28660        2.55952       -2.66992
H         13.51198        1.66939       -0.76580
H         11.86321        1.01964       -0.82700
H         12.13233        2.70029       -0.37925
H         14.13386        3.67446       -2.34738
H         12.61762        4.45141       -1.88310
H         12.99305        4.21348       -3.58963
H         12.44144       -0.40044       -2.25840
H         12.42345       -0.78903       -3.98433
H         10.32224        0.22851       -2.42429
H         14.66661        0.28362       -4.15578
H         14.51690        0.56926       -2.41367
H         14.94744        1.90395       -3.48481
H         15.78120        1.61339       -5.32302
H         17.22125        3.07377       -7.59646
H         17.13759        1.30736       -7.41272
H         17.92914        2.28783       -6.18084
H         15.77219        4.61671       -6.00221
H         16.75497        3.83896       -4.75778
H         15.00600        3.86169       -4.58394
H         15.32437        0.60950       -8.14418
H         13.55103        0.62981       -8.11474
H         14.76561       -1.07611       -6.81949
H         14.62826        4.14944       -7.94061
H         13.57253        3.00262       -8.76504
H         15.32918        2.79925       -8.85879
