50

C          8.87469       -6.97373        3.84298
O          8.32368       -5.69780        3.48908
C          7.02777       -5.48282        4.06957
C          6.62392       -4.02986        3.84192
O          6.87112       -3.57393        2.51154
C          6.12338       -4.20816        1.47939
C          6.72970       -3.75560        0.14973
C          8.26514       -3.75654        0.12932
N          8.80652       -5.03332        0.76412
C         10.30931       -5.13974        0.71156
C         10.79060       -4.94743       -0.72435
O         10.29654       -3.70071       -1.21364
C          8.86753       -3.64930       -1.28183
C          8.50951       -2.36161       -2.01785
C          8.96419       -2.41382       -3.49005
O          8.35657       -3.54228       -4.14497
C          8.69074       -1.11013       -4.22794
C         12.31569       -4.92384       -0.84297
C         12.96852       -6.29974       -0.86459
O         12.66142       -6.98172        0.36346
H          9.86422       -7.04090        3.37580
H          8.23735       -7.80008        3.48505
H          8.98997       -7.05569        4.93510
H          7.06018       -5.67302        5.15661
H          6.30417       -6.19589        3.63240
H          7.22965       -3.36725        4.47370
H          5.56238       -3.90228        4.12230
H          5.05559       -3.93026        1.52878
H          6.16711       -5.31087        1.57434
H          6.40974       -2.72655       -0.05976
H          6.33034       -4.38426       -0.66269
H          8.65275       -2.94899        0.76515
H          8.40445       -5.84134        0.26835
H          8.50402       -5.11368        1.77230
H         10.60332       -6.11935        1.10613
H         10.70632       -4.35022        1.36312
H         10.38584       -5.76763       -1.35717
H          8.50509       -4.50753       -1.88866
H          8.98393       -1.51097       -1.50277
H          7.42101       -2.20003       -1.99495
H         10.04427       -2.62589       -3.50963
H          7.53354       -3.24368       -4.56440
H          7.61431       -0.87220       -4.23062
H          9.03298       -1.18098       -5.26846
H          9.21489       -0.26791       -3.75541
H         12.74667       -4.31231       -0.03509
H         12.55063       -4.41639       -1.78991
H         14.05755       -6.17601       -0.98062
H         12.59950       -6.88085       -1.72996
H         13.20200       -7.78477        0.41287
