89

C          3.54957        0.10497       -1.61112
C          4.79584       -0.12485       -0.75374
C          4.70275        0.52929        0.63014
C          5.94855        0.29097        1.49169
C          5.83723        0.95869        2.84910
O          7.06066        0.65718        3.59419
C          7.20684        1.26867        4.78282
O          6.41944        2.06405        5.26163
C          8.49678        0.81535        5.45466
C          8.84550        1.64625        6.69805
C         10.00049        1.04347        7.49959
N         11.28109        1.29589        6.81563
C         11.47714        2.28265        5.92357
N         12.67972        2.43078        5.33670
C         13.07809        3.57677        4.51357
C         14.59689        3.58937        4.34596
C         15.05641        4.85159        3.60709
S         16.81856        5.19937        3.82126
C         16.83929        5.93359        5.46514
S         15.44917        6.18491        6.36223
N         18.08344        6.26493        5.87875
C         18.34179        6.84574        7.20283
C         19.34370        5.96952        7.95380
O         20.55144        5.79582        7.21357
C         20.29074        5.20145        5.94875
C         19.31987        6.04715        5.11759
N         10.46166        3.09235        5.59493
C          9.19156        3.11075        6.35195
C          9.33040        4.05981        7.55747
C          8.12764        4.09414        8.50375
C          8.45758        4.92426        9.75215
S          7.42714        4.52413       11.18522
C          8.21630        3.03946       11.80950
S          9.59320        2.36775       11.11743
N          7.60364        2.52823       12.89926
C          6.41104        3.13371       13.51699
C          5.09793        2.55458       12.98386
C          8.10855        1.30730       13.55188
C          9.11448        1.60749       14.66444
H          3.64724       -0.37269       -2.59520
H          3.37101        1.17725       -1.77916
H          2.65121       -0.30845       -1.12975
H          5.68441        0.26448       -1.27847
H          4.96696       -1.20747       -0.63137
H          3.81163        0.14411        1.15532
H          4.53789        1.61409        0.50877
H          6.84225        0.67498        0.97313
H          6.10596       -0.79047        1.63254
H          4.98149        0.58240        3.42957
H          5.73778        2.05126        2.77223
H          9.29998        0.81302        4.70270
H          8.35718       -0.23993        5.73974
H          7.96328        1.65874        7.35026
H          9.88191       -0.04460        7.59514
H         10.02852        1.46979        8.51588
H         12.09955        0.79884        7.14871
H         13.39777        1.74834        5.55400
H         12.77993        4.50855        5.02363
H         12.57621        3.53301        3.53102
H         14.93649        2.68928        3.80980
H         15.04763        3.59061        5.34920
H         14.51240        5.73683        3.96779
H         14.92524        4.76637        2.51852
H         17.38876        6.91701        7.73910
H         18.75346        7.85886        7.06340
H         18.88580        4.98469        8.17120
H         19.62639        6.44420        8.90229
H         19.87171        4.18388        6.07942
H         21.25735        5.12140        5.43399
H         19.10596        5.54482        4.16717
H         19.76962        7.02835        4.89314
H         10.63383        3.81021        4.90129
H          8.42344        3.49102        5.66566
H          9.54073        5.07012        7.16973
H         10.21789        3.76821        8.14351
H          7.89148        3.07459        8.83508
H          7.23115        4.48487        7.99963
H          8.29734        6.00051        9.59303
H          9.50004        4.76340       10.06384
H          6.44997        4.22224       13.37035
H          6.49561        2.96701       14.60033
H          4.98949        2.74496       11.90873
H          4.24811        3.02040       13.50057
H          5.04044        1.47074       13.15169
H          8.56846        0.68434       12.77489
H          7.23237        0.77470       13.94966
H          9.99541        2.12119       14.25958
H          9.44531        0.66902       15.12941
H          8.67463        2.23533       15.45156
