71

C          2.66995       -4.51058        1.09010
C          4.05472       -3.93265        1.26068
O          4.17993       -2.79424        0.32291
C          5.32096       -2.12262        0.34315
O          6.28459       -2.38542        1.05610
C          5.30696       -0.93476       -0.63223
N          6.47974       -0.83227       -1.50349
C          7.64961       -0.28155       -1.04965
N          7.94536       -0.35739        0.24862
C          8.98834        0.45623        0.89729
O          9.58400        1.31630       -0.03399
C          9.81473        0.62419       -1.25713
N          8.51956        0.32347       -1.89660
C          8.05210        1.24791       -2.96740
C          8.30209        0.81683       -4.41785
C          9.76195        0.46239       -4.72013
O         10.68563        0.94282       -4.06113
N          9.91732       -0.39245       -5.77440
C         11.10624       -0.88048       -6.37500
C         10.95987       -1.58294       -7.58255
C         12.07535       -2.11140       -8.22743
C         13.34859       -1.94619       -7.67454
C         13.48912       -1.24591       -6.47455
C         12.38179       -0.70765       -5.81537
C          6.47977       -1.64616       -2.73040
C          6.57253       -3.15608       -2.42990
C          7.13954       -4.01994       -3.56376
C          6.13839       -4.65244       -4.60576
C          5.24022       -3.74548       -5.53434
C          5.85718       -2.72558       -6.57057
C          6.86761       -3.18027       -7.69584
C          6.39399       -4.24157       -8.75704
F          5.22704       -3.87380       -9.30894
F          7.33113       -4.31573       -9.71524
F          6.25592       -5.45008       -8.18998
F          7.16902       -2.03727       -8.37570
F          8.00243       -3.63535       -7.11189
F          4.80302       -2.12841       -7.17105
F          6.52277       -1.76264       -5.85088
F          4.42978       -4.57839       -6.22491
F          4.45559       -2.98173       -4.70642
F          6.83742       -5.49694       -5.39790
F          5.24509       -5.38514       -3.87469
F          8.11986       -3.34657       -4.24966
F          7.73858       -5.11037       -2.98836
H          2.55310       -5.36314        1.77233
H          2.50839       -4.87204        0.06647
H          1.89471       -3.77299        1.33290
H          4.85089       -4.64799        1.01262
H          4.23782       -3.54778        2.27280
H          5.22983       -0.01824       -0.02767
H          4.41564       -0.98994       -1.26985
H          7.45986       -1.10698        0.78429
H          9.71920       -0.23850        1.35248
H          8.54187        1.08363        1.68178
H         10.35377       -0.32191       -1.08244
H         10.39255        1.26555       -1.92498
H          8.56250        2.20223       -2.77857
H          6.97683        1.41586       -2.82315
H          8.03383        1.68201       -5.04782
H          7.62697        0.00912       -4.72415
H          9.06387       -0.69024       -6.23894
H          9.96736       -1.70587       -8.02139
H         11.94791       -2.64838       -9.16782
H         14.22348       -2.35720       -8.17801
H         14.47899       -1.10789       -6.03767
H         12.50150       -0.15470       -4.88847
H          7.35589       -1.35726       -3.31217
H          5.58527       -1.39703       -3.31300
H          5.60925       -3.58197       -2.11890
H          7.28109       -3.30722       -1.60241
