72

N          1.92394        1.25016       -1.02620
C          3.05462        0.84393       -0.19426
C          3.48936       -0.57962       -0.56462
C          4.72060       -1.04636        0.23877
C          5.15701       -2.42852       -0.15715
C          5.97832       -2.67617       -1.27094
C          6.33378       -3.97452       -1.61457
C          5.88872       -5.07415       -0.87481
N          5.08089       -4.81155        0.20271
C          4.72931       -3.54213        0.54876
C          4.52813       -5.90986        1.03369
C          3.19907       -6.42612        0.46088
C          2.70934       -7.61241        1.28599
C          1.35801       -8.27716        0.82939
C          1.20081       -8.79964       -0.65543
C          2.18253       -9.87185       -1.27333
C          2.36037      -11.30602       -0.63228
C          1.09314      -12.23085       -0.49602
F          0.43662      -12.31855       -1.66449
F          1.50607      -13.45440       -0.13048
F          0.25864      -11.75850        0.44601
F          3.24288      -11.94723       -1.44152
F          2.91761      -11.17522        0.59690
F          1.77970      -10.03860       -2.55497
F          3.43317       -9.30865       -1.29971
F         -0.05993       -9.27281       -0.76807
F          1.31591       -7.70291       -1.47114
F          1.08608       -9.29177        1.67903
F          0.39169       -7.32192        0.96970
F          3.67724       -8.58035        1.33803
F          2.49554       -7.20050        2.57883
C          6.26782       -6.49496       -1.19362
C          7.00948       -6.70100       -2.51733
C          7.25405       -8.18698       -2.80041
N          7.93729       -8.34030       -4.07283
C          8.10305       -9.74414       -4.49505
C          8.95109       -9.84273       -5.73824
C          8.39436      -10.12705       -6.99027
C          9.18290      -10.22249       -8.13918
C         10.56249      -10.02663       -8.04369
C         11.14418       -9.73479       -6.80878
C         10.34249       -9.64023       -5.66796
O         10.87111       -9.33665       -4.42928
H          1.78493        2.25917       -0.99068
H          1.05391        0.82123       -0.70903
H          2.86370        0.89383        0.89773
H          3.88685        1.53622       -0.39662
H          3.70053       -0.61375       -1.64500
H          2.65373       -1.27951       -0.39048
H          4.49662       -1.02060        1.31649
H          5.55575       -0.34763        0.07402
H          6.34578       -1.83895       -1.86732
H          6.97494       -4.15683       -2.47405
H          4.09164       -3.45874        1.42850
H          4.39227       -5.51249        2.04552
H          5.27078       -6.71161        1.08941
H          3.32016       -6.74074       -0.58236
H          2.42908       -5.64271        0.48452
H          5.36275       -7.12375       -1.19685
H          6.88730       -6.88451       -0.36425
H          7.97948       -6.17689       -2.49531
H          6.43372       -6.28250       -3.35702
H          6.28368       -8.71047       -2.86682
H          7.79496       -8.64893       -1.94158
H          8.86623       -7.91676       -4.01670
H          7.10383      -10.15699       -4.70311
H          8.55304      -10.36452       -3.69198
H          7.31575      -10.28339       -7.05766
H          8.72457      -10.44884       -9.10160
H         11.19295      -10.09843       -8.93041
H         12.22283       -9.57491       -6.72853
H         11.83730       -9.28374       -4.50923
