56

C          3.24276       -1.20024        1.47162
C          4.39174       -0.80603        0.54064
C          4.27087       -1.45277       -0.84680
C          5.45498       -1.09029       -1.74492
S          5.18979       -1.88692       -3.37748
C          6.73011       -1.71072       -4.12603
N          7.11572       -2.27570       -5.25366
N          8.40348       -1.83934       -5.49328
C          8.71101       -1.05591       -4.50613
O          7.71663       -0.91824       -3.57183
N          9.95772       -0.49624       -4.25531
C         11.19860       -1.31622       -4.20396
C         12.21173       -0.36771       -3.52031
N         11.52659        0.92159       -3.60224
C         10.23534        0.78986       -3.95602
N          9.35694        1.80360       -3.94763
Br         7.98737        1.95094       -5.23742
C         12.75660       -0.68404       -2.09497
C         11.85053       -0.69683       -0.80068
C         10.70823       -1.77516       -0.58610
C         11.11966       -3.29538       -0.59691
C         10.08837       -4.35651       -0.01541
C          8.62678       -4.49835       -0.60376
C          8.37379       -4.86874       -2.12014
C          8.96490       -6.21157       -2.69243
F          8.67394       -7.24395       -1.88967
F          8.42577       -6.42345       -3.90210
F         10.30117       -6.11711       -2.82958
F          7.02794       -4.92257       -2.25661
F          8.83902       -3.85048       -2.90418
F          8.02085       -5.44220        0.15090
F          7.98347       -3.30979       -0.39648
F         10.70189       -5.55942       -0.13918
F          9.93236       -4.08680        1.30253
F         11.41119       -3.64811       -1.88242
F         12.23935       -3.43450        0.14871
F         10.14736       -1.47398        0.60482
F          9.77709       -1.56238       -1.56498
F         12.68047       -0.75241        0.25979
F         11.19774        0.51116       -0.77356
F         13.44059       -1.85454       -2.17178
F         13.66263        0.32240       -1.85055
H          3.34508       -0.71653        2.45174
H          3.21739       -2.28672        1.63756
H          2.26947       -0.90412        1.05486
H          5.35376       -1.09754        0.99422
H          4.42249        0.29067        0.43075
H          3.32779       -1.13412       -1.32091
H          4.21531       -2.54824       -0.74156
H          6.39873       -1.46518       -1.32892
H          5.53245       -0.00447       -1.89323
H         11.51461       -1.56469       -5.22474
H         11.01009       -2.24247       -3.65601
H         13.13965       -0.32790       -4.11037
H         11.95956        1.79694       -3.32751
H          9.71016        2.72313       -3.69202
