50

S          2.02104       -0.45119        1.61208
C          3.59336       -0.40990        1.17798
N          4.10704        0.54902        0.25653
C          3.97656        1.91928        0.38257
N          4.66024        2.55939       -0.54446
C          5.21722        1.57183       -1.34037
C          4.91360        0.32532       -0.85194
S          4.72358       -1.57487        1.84245
C          6.41263       -0.83979        1.77911
C          6.48979        0.55789        2.40231
C          7.91247        1.00300        2.77196
C          8.03048        2.49990        3.13318
C          6.98159        3.05291        4.12682
C          5.94426        3.79519        3.24918
C          6.66128        3.99059        1.96757
N          7.78970        3.36212        1.92171
C          8.75941        3.41684        0.80601
C          8.20730        2.71325       -0.43733
C          9.21119        2.52930       -1.58282
C          9.23883        3.62645       -2.71233
C          9.61587        5.11886       -2.36920
C         11.04396        5.42889       -1.78669
F         12.00495        4.85137       -2.51358
F         11.22581        6.75568       -1.77610
F         11.13336        4.98181       -0.50682
F          9.48487        5.82020       -3.51305
F          8.69683        5.59285       -1.46297
F         10.07419        3.20104       -3.68553
F          7.96889        3.68264       -3.21710
F         10.48415        2.35551       -1.10451
F          8.86962        1.37561       -2.23989
H          3.36714        2.35576        1.16891
H          5.77912        1.81110       -2.23898
H          5.12226       -0.67653       -1.21022
H          6.80347       -0.85370        0.75304
H          6.98564       -1.57607        2.36431
H          5.85116        0.57684        3.29849
H          6.05374        1.27055        1.68940
H          8.62217        0.76857        1.96191
H          8.27443        0.44242        3.64772
H          9.05800        2.70559        3.46495
H          7.45883        3.75907        4.81718
H          6.52954        2.25905        4.72955
H          5.61983        4.76299        3.66038
H          5.01753        3.22631        3.06461
H          6.31622        4.59035        1.12194
H          9.67874        2.93573        1.15705
H          8.98219        4.47296        0.62078
H          7.31928        3.23122       -0.81995
H          7.88628        1.69691       -0.17393
