68

C          0.48668       -1.01438        0.68083
C          1.98335       -0.74650        0.50325
C          2.47707        0.48124        1.27634
C          3.97531        0.75226        1.11033
C          4.46583        1.98806        1.87141
C          5.97192        2.23393        1.73602
C          6.46015        3.48455        2.47427
C          7.97656        3.68730        2.39593
C          8.46957        4.94408        3.12038
C          9.99465        5.08984        3.11823
C         10.48922        6.34471        3.84826
C         12.00997        6.39982        4.06557
C         12.87538        6.37243        2.79472
C         12.67699        7.59000        1.88235
C         13.62886        7.54180        0.68920
N         13.55290        8.76070       -0.17786
C         12.80265        8.77267       -1.40483
C         12.40241        7.40921       -2.04173
F         13.51127        6.64702       -2.24151
F         11.53026        6.73605       -1.24283
F         11.61266        9.47809       -1.24877
F         13.50755        9.44404       -2.36740
C         14.05004        9.94999        0.29872
N         15.06631        9.93668        1.16980
N         13.55745       11.12767       -0.09540
C         14.23483       12.41297        0.10814
C         14.14858       12.97639        1.50611
C         13.40733       12.49549        2.50787
H          0.16473       -1.89854        0.11357
H         -0.11590       -0.16097        0.33540
H          0.23493       -1.18855        1.73762
H          2.21028       -0.61495       -0.56843
H          2.55722       -1.63206        0.82541
H          2.24645        0.35299        2.34879
H          1.90606        1.36908        0.95126
H          4.20894        0.86873        0.03713
H          4.54448       -0.13224        1.44702
H          4.21019        1.88353        2.94057
H          3.91574        2.87755        1.51661
H          6.23505        2.31528        0.66640
H          6.51874        1.35197        2.11358
H          6.15841        3.42267        3.53464
H          5.94733        4.37369        2.06707
H          8.28730        3.72916        1.33663
H          8.48131        2.80237        2.82199
H          8.11248        4.92657        4.16479
H          8.01125        5.83787        2.66120
H         10.35329        5.08732        2.07350
H         10.44239        4.19780        3.59096
H         10.00838        6.39333        4.83864
H         10.14103        7.24606        3.31349
H         12.30813        5.54456        4.69259
H         12.26155        7.30204        4.64867
H         12.67580        5.45144        2.22314
H         13.93563        6.31772        3.09503
H         12.84430        8.51459        2.46142
H         11.64303        7.63337        1.50843
H         13.42250        6.67558        0.05751
H         14.67442        7.40544        1.00429
H         11.92196        7.62214       -3.01001
H         15.54074        9.07438        1.40335
H         15.22078       10.75008        1.76222
H         12.67837       11.12123       -0.60417
H         13.79089       13.11983       -0.60854
H         15.29053       12.30252       -0.19234
H         14.76014       13.87055        1.65592
H         12.76206       11.62125        2.39372
H         13.40128       12.98198        3.48185
