62

C          0.95683       -0.25954       -0.25065
C          2.45370       -0.02619       -0.03419
C          2.97183       -0.62851        1.27758
C          4.46872       -0.37787        1.50061
C          4.95675       -0.99440        2.79637
O          6.38441       -0.67352        2.93292
C          7.02243       -1.20753        3.97572
O          6.51157       -1.94279        4.81229
C          8.48165       -0.79314        4.01340
C          9.16457       -1.44666        5.19295
C         10.58811       -1.05916        5.61184
O         10.85971       -2.10063        6.59115
C         10.48580       -3.30320        6.01775
N          9.28568       -2.99215        5.08877
C          9.50078       -3.64505        3.72998
C          8.23312       -3.97455        2.93369
C          8.59102       -4.93805        1.82032
C          8.56103       -6.32267        2.04057
C          8.93420       -7.21000        1.02911
C          9.34540       -6.72073       -0.21387
C          9.37488       -5.34262       -0.44352
C          8.99905       -4.45635        0.56870
C         10.81715        0.26533        6.33952
C         10.69334        1.58161        5.51827
N         11.24231        1.34695        4.18013
N          9.27023        1.90149        5.35710
N         11.36895        2.72342        6.15798
H          0.61708        0.18015       -1.19770
H          0.36075        0.19035        0.55683
H          0.71877       -1.33319       -0.27920
H          2.66482        1.05627       -0.04313
H          3.02200       -0.45281       -0.87759
H          2.77194       -1.71420        1.28311
H          2.39778       -0.20962        2.12216
H          4.66865        0.70538        1.51847
H          5.04884       -0.79327        0.66069
H          4.84918       -2.08896        2.80859
H          4.43402       -0.59144        3.67608
H          8.54275        0.29839        4.19770
H          8.97672       -0.96031        3.04790
H          8.51997       -1.30978        6.07351
H         11.28577       -1.15308        4.76034
H         10.19004       -4.02129        6.79295
H         11.26689       -3.72827        5.36497
H          8.40277       -3.35868        5.47229
H         10.02467       -4.58575        3.94816
H         10.19382       -3.00809        3.16388
H          7.78081       -3.07160        2.50670
H          7.48360       -4.42676        3.60213
H          8.22817       -6.71234        3.00594
H          8.89645       -8.28466        1.20953
H          9.63404       -7.41338       -1.00473
H          9.68414       -4.95572       -1.41483
H          9.01182       -3.38022        0.37871
H         11.83860        0.20585        6.74273
H         10.14888        0.32005        7.21337
H         12.24388        1.14864        4.24800
H         11.17747        2.21792        3.64608
H          8.83186        2.00292        6.27501
H          9.19374        2.81923        4.90930
H         12.37138        2.56032        6.27512
H         10.98408        2.92659        7.08343
