87

C          3.63586        2.24850        1.53695
C          4.22570        0.97406        0.92810
C          4.49700        1.08962       -0.57662
C          5.10383       -0.17976       -1.18367
C          5.40516       -0.05952       -2.68236
C          5.96433       -1.36063       -3.27384
C          6.32934       -1.21078       -4.75199
S          6.87510       -2.85746       -5.35435
C          7.44702       -2.45335       -6.92821
N          7.49344       -1.30354       -7.56360
N          8.08039       -1.56560       -8.79553
C          8.33930       -2.83561       -8.83211
O          7.96842       -3.48883       -7.67915
C          8.95067       -3.63568       -9.94522
C          9.29676       -2.71068      -11.13686
C         10.14697       -3.34395      -12.25883
C         11.62589       -2.93988      -12.19774
S         12.69457       -3.91608      -13.28692
C         12.50247       -3.03619      -14.85143
S         11.54928       -1.69543      -15.05023
N         13.26102       -3.60370      -15.83158
C         14.03575       -4.80757      -15.62438
C         15.42635       -4.71517      -15.49389
C         16.18124       -5.87783      -15.33619
C         15.55255       -7.12679      -15.31219
C         14.16406       -7.21406      -15.45022
C         13.40106       -6.05602      -15.61161
C         13.37079       -2.99557      -17.14085
C         12.78343       -3.63017      -18.23724
C         12.92824       -3.07311      -19.50949
C         13.65890       -1.89459      -19.68027
C         14.24793       -1.26926      -18.57699
C         14.10737       -1.81836      -17.30264
N         10.21987       -4.25067       -9.43833
C         10.41736       -5.51975       -9.68159
S          9.14192       -6.37626      -10.37443
C          8.02412       -4.88192      -10.26051
C          7.08126       -4.73259      -11.46465
C          6.44338       -6.04784      -11.92932
O          5.93048       -6.18658      -13.01414
O          6.49647       -7.00371      -10.96685
C          5.87707       -8.29414      -11.30459
C          6.14077       -9.24531      -10.15906
C          5.92994       -3.75139      -11.14094
H          3.45377        2.13111        2.61381
H          2.67774        2.51148        1.06497
H          4.31461        3.10423        1.40671
H          3.54242        0.12698        1.10938
H          5.16557        0.71811        1.44583
H          5.17384        1.94275       -0.75979
H          3.55565        1.33240       -1.10058
H          4.41819       -1.02895       -1.01616
H          6.03476       -0.43151       -0.64595
H          6.12435        0.76070       -2.84835
H          4.48645        0.22402       -3.22338
H          5.21962       -2.16517       -3.15246
H          6.85671       -1.67176       -2.70655
H          7.15327       -0.50271       -4.90703
H          5.47239       -0.89522       -5.36129
H          9.80191       -1.82343      -10.72652
H          8.34963       -2.32012      -11.52898
H          9.76272       -3.00646      -13.23199
H         10.06895       -4.44038      -12.26950
H         12.06798       -3.09125      -11.19984
H         11.74397       -1.88117      -12.47831
H         15.90447       -3.73602      -15.51929
H         17.26456       -5.80718      -15.23404
H         16.14659       -8.03351      -15.19380
H         13.67352       -8.18805      -15.44552
H         12.31849       -6.10918      -15.72992
H         12.21578       -4.54952      -18.09271
H         12.46752       -3.56175      -20.36839
H         13.77108       -1.46243      -20.67503
H         14.81861       -0.34978      -18.70887
H         14.55191       -1.33488      -16.43288
H         10.94617       -3.65410       -9.04189
H         11.36528       -5.99962       -9.43066
H          7.42599       -5.10537       -9.36666
H          7.63472       -4.36467      -12.33950
H          6.31080       -8.63915      -12.25294
H          4.80577       -8.11361      -11.46717
H          7.21637       -9.41344      -10.01455
H          5.67738      -10.21572      -10.38109
H          5.71176       -8.87356       -9.21920
H          5.33872       -4.11087      -10.28691
H          5.26892       -3.67295      -12.01202
H          6.29737       -2.74611      -10.90194
