74

C          2.86787       -7.81353        5.24085
C          2.62782       -6.85348        4.07421
C          2.73313       -5.38081        4.48680
C          2.46566       -4.43960        3.30757
N          2.67913       -3.01798        3.64324
C          1.67976       -2.23841        4.08745
S          0.10822       -2.82722        4.32816
S          2.16774       -0.55393        4.41119
C          0.64987        0.22194        5.02880
C         -0.27489        0.71497        3.90861
C         -1.58367        1.34830        4.41382
C         -2.56030        0.37035        4.98242
N         -2.40454       -0.96474        5.02841
C         -3.52304       -1.57301        5.58011
C         -4.38718       -0.55212        5.87590
N         -3.77980        0.64155        5.50282
C         -4.39382        1.97438        5.64870
C         -4.62553        2.37581        7.10804
C         -3.33648        2.51470        7.94508
C         -2.39859        3.48961        7.40179
C         -1.64129        4.30835        6.92995
C         -3.61989       -3.05031        5.77159
C         -2.69665       -3.57734        6.89229
C         -2.71058       -5.10590        7.04289
C         -2.11577       -5.81421        5.81976
S         -1.93130       -7.57962        6.15987
O         -0.85741       -7.78074        7.10474
O         -3.23492       -8.16807        6.35543
Cl        -1.23972       -8.22630        4.29224
C          4.06217       -2.53721        3.46245
C          4.35959       -2.05740        2.03689
C          5.82275       -1.63079        1.87228
C          6.14990       -1.18101        0.44696
H          2.80620       -8.85852        4.91080
H          2.12056       -7.67278        6.03487
H          3.86328       -7.66150        5.68364
H          1.63081       -7.04105        3.64297
H          3.35418       -7.05675        3.26923
H          3.73836       -5.18557        4.89640
H          2.01575       -5.15979        5.29286
H          1.43528       -4.55373        2.94713
H          3.14621       -4.66893        2.47379
H          1.01714        1.06432        5.63456
H          0.17239       -0.49945        5.70604
H         -0.49327       -0.11199        3.21695
H          0.25840        1.47424        3.32094
H         -2.07317        1.86851        3.57347
H         -1.37477        2.12672        5.16773
H         -1.53018       -1.47235        4.72742
H         -5.38265       -0.57704        6.30305
H         -5.34558        1.96185        5.09963
H         -3.73147        2.69784        5.15754
H         -5.29509        1.65476        7.59978
H         -5.15689        3.33805        7.09176
H         -2.83780        1.53560        8.04361
H         -3.61339        2.81108        8.96903
H         -0.97564        5.05878        6.55573
H         -3.37920       -3.54119        4.81513
H         -4.66582       -3.30419        5.99686
H         -3.00869       -3.12897        7.84767
H         -1.66293       -3.24283        6.70790
H         -3.73416       -5.46867        7.21871
H         -2.12201       -5.36870        7.93390
H         -1.10900       -5.45079        5.56946
H         -2.75611       -5.76315        4.92970
H          4.72264       -3.37674        3.72644
H          4.26559       -1.74191        4.19467
H          3.69291       -1.21670        1.78753
H          4.12838       -2.86512        1.32358
H          6.48163       -2.46893        2.15444
H          6.04673       -0.81492        2.57941
H          5.97029       -1.98914       -0.27693
H          7.20227       -0.88208        0.35804
H          5.53187       -0.32215        0.14757
