69

C          4.31159        3.11955        3.88059
C          5.14530        2.20454        2.98168
C          5.61276        2.88728        1.69251
C          6.45855        1.98245        0.79176
C          6.93024        2.66998       -0.49296
C          7.80183        1.77542       -1.38000
C          8.29691        2.48135       -2.64567
C          9.22752        1.61125       -3.49873
C          9.75215        2.35860       -4.73428
C         10.79055        1.53894       -5.48398
N         11.38248        2.34326       -6.65254
C         10.42050        2.54962       -7.71959
N          9.84124        1.63014       -8.40582
N          9.01115        2.30615       -9.30330
C          9.17085        3.58958       -9.06490
O         10.08316        3.82156       -8.03296
S          8.45827        4.97327       -9.79774
C          7.37210        4.13985      -11.02683
C          6.66647        5.22059      -11.83967
C         12.69784        1.76871       -7.19609
O         13.23173        2.80680       -7.93172
C         14.62630        2.61893       -8.32161
C         15.13134        3.92738       -8.89917
C         16.61279        3.86128       -9.29096
C         17.13452        5.19562       -9.83514
C         18.61925        5.16440      -10.20986
C         19.13012        6.50519      -10.74144
H          3.98548        2.60008        4.79179
H          3.41060        3.47693        3.36023
H          4.88721        4.00462        4.19042
H          4.55913        1.30661        2.72310
H          6.02560        1.84173        3.53859
H          6.19404        3.79043        1.95017
H          4.73225        3.24460        1.12995
H          5.87819        1.07999        0.53150
H          7.33742        1.62550        1.35690
H          7.49648        3.58088       -0.23021
H          6.05284        3.01324       -1.06830
H          7.23563        0.87076       -1.66102
H          8.67092        1.42307       -0.79742
H          8.82975        3.40523       -2.36034
H          7.43279        2.80077       -3.25303
H          8.70036        0.69705       -3.81722
H         10.08039        1.28112       -2.88136
H         10.20617        3.31197       -4.40914
H          8.91150        2.61043       -5.40035
H         10.37917        0.62421       -5.92886
H         11.64299        1.28279       -4.84058
H         11.63440        3.28283       -6.30074
H          6.66887        3.50639      -10.47345
H          8.00978        3.50143      -11.64968
H          6.04565        5.86810      -11.20644
H          6.00639        4.73722      -12.57186
H          7.37952        5.84770      -12.39041
H         12.42712        0.87124       -7.78010
H         13.30881        1.49524       -6.31602
H         14.68228        1.79763       -9.05576
H         15.20374        2.32914       -7.42486
H         14.98109        4.72330       -8.15211
H         14.52070        4.19179       -9.77672
H         16.76422        3.07209      -10.04665
H         17.21399        3.56757       -8.41332
H         16.96648        5.98530       -9.08205
H         16.54056        5.48666      -10.71878
H         18.78712        4.37837      -10.96493
H         19.20922        4.86848       -9.32606
H         18.58441        6.81013      -11.64645
H         20.19642        6.45327      -10.99802
H         19.00654        7.30339       -9.99453
