57

C          9.81396       -0.30135        5.71366
C          9.30776       -0.29278        4.26934
C          9.44824        1.07027        3.58206
C          8.94589        1.08059        2.13482
C          9.12979        2.42516        1.42322
C          8.62449        2.42672       -0.02355
C          8.88641        3.74155       -0.76573
C          8.43798        3.70672       -2.23308
C          8.77505        4.96394       -3.02017
O         10.19944        5.16247       -2.94289
C         10.73706        6.15065       -3.79661
C         12.21452        6.27493       -3.37613
C         12.92423        7.46664       -4.09041
C         12.78570        8.76993       -3.32814
O         13.32170        8.50948       -2.02840
C         13.11440        9.57433       -1.07468
C         13.69976        9.15319        0.25769
C         12.21309        6.42469       -1.87706
N         12.95272        5.52599       -1.29522
C         13.67954        4.65770       -2.21393
C         12.97943        4.92552       -3.55382
I         15.81380        5.13378       -2.14453
H          9.69662       -1.29185        6.17398
H          9.26375        0.41995        6.33596
H         10.88084       -0.03690        5.76607
H          8.24902       -0.60138        4.24772
H          9.85353       -1.05100        3.68253
H         10.50920        1.37890        3.60401
H          8.90148        1.83150        4.16608
H          7.87761        0.80315        2.11748
H          9.46902        0.29430        1.56244
H         10.20258        2.69410        1.43409
H          8.61508        3.21769        1.99425
H          7.54362        2.20548       -0.03490
H          9.10539        1.60004       -0.57583
H          9.96597        3.96615       -0.72335
H          8.37875        4.57172       -0.24362
H          7.34816        3.55512       -2.29223
H          8.89751        2.84239       -2.74026
H          8.26357        5.85354       -2.60598
H          8.47631        4.85903       -4.07842
H         10.22332        7.12413       -3.67018
H         10.66152        5.86515       -4.86365
H         12.52178        7.56601       -5.10882
H         13.99360        7.23367       -4.18376
H         11.73405        9.10572       -3.24951
H         13.35795        9.57444       -3.82038
H         12.03238        9.79036       -0.99742
H         13.60984       10.48276       -1.45786
H         13.17711        8.27926        0.67247
H         13.59859        9.97071        0.98320
H         14.76563        8.91168        0.15934
H         11.55055        7.05532       -1.29090
H         13.07323        5.46023       -0.28451
H         13.63431        3.62139       -1.86803
H         12.25658        4.11556       -3.72173
H         13.67817        4.95087       -4.39486
