42

C          3.08485        1.44568       -0.24794
C          4.54862        1.42646        0.14625
O          4.76549        0.59095        1.34836
C          4.96626       -0.71131        1.14692
O          4.97118       -1.29951        0.08326
C          5.25241       -1.41036        2.48783
S          4.68705       -3.15753        2.24694
C          5.14170       -3.90893        3.85606
C          4.47184       -5.29341        4.01683
O          4.40009       -5.94666        2.74860
C          5.18762       -6.11589        5.08133
C          2.87367       -3.04402        2.39527
C          2.20654       -2.28008        1.24793
O          0.82953       -2.55017        1.41204
C          0.01369       -1.84466        0.48956
C         -1.44501       -2.13107        0.83972
F         -1.74414       -1.72778        2.09658
F         -2.24527       -1.45771       -0.02106
F         -1.73530       -3.44715        0.74646
C          6.75588       -1.36350        2.79112
H          2.94505        2.16830       -1.06353
H          2.45074        1.76125        0.59120
H          2.75152        0.46615       -0.61430
H          4.90314        2.41312        0.46402
H          5.19008        1.03890       -0.65476
H          4.65998       -0.96379        3.29895
H          4.88480       -3.22028        4.67370
H          6.23501       -4.01132        3.79219
H          3.42458       -5.14228        4.32328
H          5.18484       -6.50555        2.62131
H          6.23166       -6.31506        4.79215
H          4.67090       -7.07422        5.21658
H          5.19884       -5.59736        6.04985
H          2.61927       -2.61155        3.37272
H          2.54379       -4.09227        2.35879
H          2.58091       -2.62562        0.26654
H          2.39670       -1.19362        1.32457
H          0.19102       -2.17352       -0.54958
H          0.17115       -0.75342        0.55738
H          7.33626       -1.89261        2.02354
H          6.99309       -1.77351        3.77925
H          7.06982       -0.31143        2.78792
