68

C          0.62822       -7.31629       -2.92271
C          2.10815       -7.17529       -2.55823
C          2.72981       -5.86635       -3.05753
C          4.21847       -5.71892       -2.72600
C          4.82123       -4.40149       -3.22301
C          6.32867       -4.27505       -2.98038
C          6.91597       -2.99002       -3.57690
C          8.42589       -2.88237       -3.48113
O          9.01745       -3.90371       -4.33155
C         10.41389       -3.93396       -4.25249
P         10.94608       -5.44534       -5.14351
C         10.43298       -5.42361       -6.88299
C         10.92037       -6.63635       -7.70574
C         10.50976       -8.02685       -7.18686
P          8.70172       -8.29465       -7.22350
O          8.06017       -7.74444       -8.43408
O          8.44037       -9.86534       -7.07863
C          8.78405      -10.65708       -5.90336
C          8.20680      -12.04421       -6.09351
O          8.27109       -7.62119       -5.81081
C          6.83667       -7.49733       -5.50209
C          6.21610       -6.26943       -6.14169
C         12.74209       -5.68074       -4.96925
C         13.26845       -5.80419       -3.52447
C         12.73111       -7.01171       -2.75172
H          0.20723       -8.25614       -2.54098
H          0.48159       -7.30569       -4.01272
H          0.03325       -6.49256       -2.50217
H          2.67359       -8.02832       -2.97119
H          2.22609       -7.23745       -1.46339
H          2.17450       -5.01390       -2.62883
H          2.59210       -5.79205       -4.15135
H          4.77323       -6.56693       -3.16766
H          4.36450       -5.80333       -1.63503
H          4.30051       -3.55662       -2.74057
H          4.62055       -4.29406       -4.30305
H          6.84362       -5.14758       -3.41340
H          6.53589       -4.30530       -1.89675
H          6.49275       -2.10973       -3.06609
H          6.62521       -2.89329       -4.63615
H          8.77882       -3.04345       -2.44515
H          8.78034       -1.89335       -3.82069
H         10.78790       -4.01577       -3.21147
H         10.90876       -3.05674       -4.71960
H         10.26372       -6.50629       -4.51095
H         10.81983       -4.48655       -7.31257
H          9.33480       -5.35252       -6.87017
H         12.01476       -6.59543       -7.81216
H         10.50590       -6.50914       -8.71579
H         10.90837       -8.25315       -6.18497
H         10.92654       -8.78815       -7.86289
H          8.37363      -10.16502       -5.00810
H          9.88208      -10.69494       -5.80773
H          7.11504      -12.00281       -6.19897
H          8.44713      -12.66880       -5.22218
H          8.62414      -12.52371       -6.98805
H          6.80147       -7.44982       -4.40588
H          6.32503       -8.41757       -5.82178
H          6.74927       -5.35799       -5.84008
H          5.17335       -6.17806       -5.80746
H          6.22563       -6.34611       -7.23493
H         13.20914       -4.83384       -5.49749
H         12.98492       -6.58500       -5.55013
H         13.07145       -4.87354       -2.97095
H         14.36338       -5.87420       -3.60079
H         11.65401       -6.93748       -2.54005
H         13.23811       -7.10054       -1.78322
H         12.90340       -7.94918       -3.30048
