61

C          3.22918       -4.71151        8.10032
C          3.31736       -3.77336        6.89396
C          4.41849       -2.71562        7.03196
C          4.50477       -1.76550        5.83188
C          5.59153       -0.69310        5.99895
C          5.61750        0.26585        4.82052
O          6.56270        1.37512        5.08463
C          7.76795        1.31795        4.55592
O          8.18491        0.39604        3.84212
C          8.60511        2.54811        4.86751
C         10.10854        2.26997        5.04181
N         10.61248        1.31032        3.95754
C         11.31163        2.11269        2.87757
C         11.17924        3.58016        3.32161
C         10.99008        3.52211        4.86095
C         12.28970        3.44932        5.67685
C         12.02371        3.41694        7.17861
O         10.91586        3.37016        7.68306
O         13.17839        3.44228        7.86248
C         13.05999        3.41843        9.31167
C         12.31743        4.44351        2.78571
O         12.25973        4.34087        1.37789
C         13.27054        5.10831        0.70441
C         13.13037        4.88608       -0.79314
C         14.14277        5.70374       -1.60047
H          2.42681       -5.45057        7.97304
H          3.02236       -4.15461        9.02612
H          4.16855       -5.26431        8.24909
H          2.34758       -3.26826        6.74854
H          3.49116       -4.36301        5.97822
H          5.39180       -3.21742        7.17325
H          4.24469       -2.12711        7.94971
H          3.52696       -1.27477        5.68655
H          4.69448       -2.34765        4.91397
H          6.57856       -1.17259        6.10291
H          5.41038       -0.12006        6.92213
H          4.65680        0.77891        4.68924
H          5.91083       -0.22320        3.88353
H          8.23888        3.02968        5.78207
H          8.42937        3.25722        4.04106
H         10.26907        1.78451        6.01094
H          9.74021        0.77414        3.63942
H         11.25176        0.62664        4.37092
H         10.84157        1.90439        1.91200
H         12.35842        1.78689        2.83012
H         10.25470        3.98654        2.88178
H         10.42711        4.40146        5.20251
H         12.92773        4.32100        5.47265
H         12.91165        2.57467        5.42068
H         14.08851        3.43470        9.68132
H         12.54300        2.50682        9.63535
H         12.50623        4.29864        9.65971
H         13.29993        4.08817        3.16033
H         12.19391        5.49275        3.12120
H         14.27177        4.79288        1.05847
H         13.14809        6.17897        0.95833
H         12.10403        5.15063       -1.09147
H         13.25348        3.81221       -1.00425
H         14.01695        6.78288       -1.43178
H         14.02030        5.52145       -2.67549
H         15.17805        5.44247       -1.33717
