60

C          1.35634        0.57733       -1.11544
C          2.84243        0.53991       -0.74595
C          3.08075        0.87706        0.71623
O          4.50161        0.81500        0.96691
C          4.82457        0.97948        2.32851
C          6.30556        0.77759        2.52668
C          7.09007        1.74909        3.16880
C          8.43911        1.53317        3.34612
C          9.00080        0.32882        2.86197
N          8.23995       -0.58102        2.25032
N          6.93185       -0.34540        2.10349
C          6.21885       -1.48768        1.44508
C          5.21004       -2.14468        2.35600
C          3.94047       -2.46275        1.85958
C          3.00373       -3.10472        2.67025
C          3.30119       -3.43313        4.00142
C          4.57815       -3.10516        4.49059
C          5.52370       -2.47823        3.68262
C          2.29976       -4.13841        4.87521
C         10.45871        0.02976        3.02447
C         10.94822       -1.32094        2.50943
C         12.31628       -1.63076        3.14391
O         12.61997       -1.16630        4.24062
N         13.10245       -2.46826        2.40149
C         14.37737       -3.01134        2.69738
C         15.11163       -2.67908        3.84679
C         16.36494       -3.26270        4.04265
C         16.89588       -4.16624        3.12013
C         16.15908       -4.49274        1.97819
C         14.90810       -3.91950        1.76627
H          1.21511        0.32057       -2.17245
H          0.92672        1.57670       -0.95771
H          0.77086       -0.13726       -0.51920
H          3.40842        1.24864       -1.36938
H          3.25775       -0.45976       -0.95192
H          2.56350        0.16129        1.38231
H          2.71283        1.89194        0.95651
H          4.27696        0.25584        2.96829
H          4.57206        1.99501        2.68698
H          6.60844        2.66535        3.50918
H          9.07175        2.26973        3.84312
H          7.03187       -2.16484        1.15892
H          5.73078       -1.08859        0.54871
H          3.68463       -2.21190        0.82854
H          2.02146       -3.35042        2.26271
H          4.83710       -3.35407        5.52135
H          6.51110       -2.25303        4.09181
H          1.28346       -4.06245        4.47026
H          2.29767       -3.73045        5.89485
H          2.54433       -5.20863        4.95667
H         10.71937        0.09341        4.09738
H         11.02670        0.85336        2.55818
H         10.98869       -1.34787        1.41064
H         10.25311       -2.11871        2.81752
H         12.71521       -2.77158        1.51248
H         14.70204       -1.97820        4.56835
H         16.93295       -3.00036        4.93588
H         17.87532       -4.61360        3.28859
H         16.55815       -5.19665        1.24744
H         14.33496       -4.17805        0.87216
