97

C          0.09415       -1.93191       -0.62259
C          1.53652       -1.71080       -0.15262
C          1.73517       -0.63147        0.93755
C          1.59830       -1.17122        2.39130
C          0.26358       -1.76558        2.74620
C         -0.77334       -0.95264        3.18850
N         -1.99044       -1.46723        3.50509
C         -3.07319       -0.55287        3.95365
C         -3.89551        0.01060        2.79208
C         -4.97664        0.97330        3.29991
C         -5.86218        1.53785        2.18316
C         -6.90787        2.53302        2.69909
C         -7.86998        3.03087        1.61544
C         -8.89545        4.04540        2.13291
C         -9.89245        4.50856        1.06543
C        -10.89738        5.54638        1.57657
C        -11.92806        5.96855        0.52415
C        -12.89582        7.04680        1.02000
C        -13.95424        7.41310       -0.02900
N        -14.83446        8.49582        0.39122
C        -15.96061        8.35745        1.17171
C        -16.46560        9.62208        1.43616
C        -15.61096       10.55784        0.79948
C        -14.61062        9.83548        0.16628
C         -2.24194       -2.79497        3.38043
C         -1.25115       -3.66875        2.94979
C          0.00839       -3.14313        2.64212
C         -1.54881       -5.14610        2.83632
O         -0.46912       -5.74904        2.16333
C         -0.52620       -7.10929        1.88266
C         -1.56673       -7.92385        2.33261
C         -1.58438       -9.29787        2.03830
C         -2.71860      -10.16581        2.51954
C         -0.53210       -9.82021        1.28349
C          0.50060       -8.99191        0.83740
C          0.54319       -7.62284        1.11565
C          1.70505       -6.78606        0.59654
C          1.26592       -5.68698       -0.39065
C          2.60109       -6.24200        1.72658
C          3.11002        0.03710        0.80355
H          0.05697       -2.68880       -1.41724
H         -0.32927       -1.00318       -1.03232
H         -0.57467       -2.27303        0.17852
H          2.13339       -1.41418       -1.02858
H          1.98066       -2.66147        0.18727
H          0.96101        0.14538        0.79669
H          1.81549       -0.34460        3.08517
H          2.37684       -1.93265        2.55493
H         -0.66612        0.12400        3.31414
H         -2.59303        0.25196        4.52635
H         -3.70530       -1.12022        4.64987
H         -4.35702       -0.82108        2.23463
H         -3.22545        0.52973        2.08723
H         -4.49660        1.80578        3.84296
H         -5.61186        0.45478        4.03865
H         -6.37069        0.70534        1.66662
H         -5.23045        2.02831        1.42264
H         -6.39401        3.39516        3.15878
H         -7.48970        2.06132        3.51023
H         -8.39969        2.16733        1.17616
H         -7.29280        3.48319        0.79004
H         -8.36539        4.92207        2.54458
H         -9.44963        3.60379        2.97974
H        -10.43852        3.63251        0.67352
H         -9.34050        4.92847        0.20618
H        -10.35210        6.43769        1.93233
H        -11.42391        5.14330        2.45904
H        -12.49850        5.08068        0.19952
H        -11.40287        6.33431       -0.37544
H        -12.33826        7.95726        1.29306
H        -13.40361        6.70817        1.93773
H        -14.57810        6.53783       -0.26601
H        -13.47044        7.72145       -0.96777
H        -16.31426        7.37465        1.46697
H        -17.35962        9.83921        2.01171
H        -15.71667       11.63761        0.78745
H        -13.76711       10.16295       -0.43282
H         -3.24773       -3.11686        3.64757
H          0.79279       -3.81919        2.30642
H         -2.49902       -5.29601        2.28917
H         -1.68179       -5.57251        3.85034
H         -2.38179       -7.50933        2.92631
H         -3.64729       -9.94602        1.97140
H         -2.92490      -10.00448        3.58707
H         -2.49365      -11.22957        2.37613
H         -0.51493      -10.88357        1.04058
H          1.31335       -9.42299        0.24900
H          2.32840       -7.48938        0.02064
H          0.63446       -4.92931        0.08983
H          0.69272       -6.11694       -1.22292
H          2.14541       -5.18082       -0.81378
H          2.05829       -5.55658        2.39186
H          3.46217       -5.70188        1.30771
H          2.98625       -7.06143        2.34813
H          3.92001       -0.70117        0.90614
H          3.26552        0.81269        1.56679
H          3.21519        0.50956       -0.18189
