47

C          0.82657        2.32726        0.81197
C          2.27824        2.22650        1.29196
C          3.18517        1.61905        0.21462
C          4.68694        1.42260        0.52604
S          5.43796        3.14639        0.79302
C          5.37472        2.95829        2.46589
N          5.03548        1.77416        2.90150
C          4.92626        0.69735        1.89249
C          6.17968       -0.20527        2.03902
C          6.33289       -0.63612        3.42164
C          6.41960       -0.95453        4.58591
C          5.42964        0.82901       -0.68747
C          5.02151       -0.63034       -0.96616
O          4.25566       -1.21589       -0.18762
N          5.56901       -1.21830       -2.06137
C          5.31305       -2.65145       -2.29797
C          6.49924       -3.55438       -1.93094
C          6.94147       -3.45964       -0.46540
C          8.06595       -4.43785       -0.11683
C          6.54315       -0.56156       -2.93019
H          0.18735        2.76544        1.58869
H          0.41892        1.33777        0.56228
H          0.74372        2.96001       -0.08303
H          2.30574        1.61387        2.20786
H          2.63382        3.23142        1.57405
H          3.11233        2.22533       -0.70413
H          2.81718        0.61379       -0.04577
H          5.60946        3.77161        3.15485
H          5.06732        1.52359        3.89257
H          4.03977        0.09153        2.12047
H          7.08501        0.33297        1.71324
H          6.04328       -1.07893        1.38658
H          6.51971       -1.27848        5.60211
H          6.52028        0.87916       -0.54377
H          5.21260        1.45677       -1.56572
H          5.05657       -2.77016       -3.36150
H          4.43154       -2.91417       -1.70185
H          7.35719       -3.34624       -2.59279
H          6.19419       -4.58859       -2.15828
H          6.07161       -3.63680        0.18810
H          7.28092       -2.42991       -0.25266
H          7.75020       -5.47888       -0.27583
H          8.36947       -4.34139        0.93430
H          8.95692       -4.26446       -0.73801
H          7.55623       -0.55698       -2.49673
H          6.24840        0.46923       -3.16124
H          6.58568       -1.10923       -3.87866
