65

C          0.62692        0.26355        0.18546
C          2.15407        0.23353        0.08809
C          2.66861       -0.17129       -1.29824
C          4.19690       -0.22588       -1.38587
C          4.72577       -0.62218       -2.76829
C          6.25327       -0.72847       -2.81650
C          6.80439       -1.13670       -4.18681
C          8.32609       -1.31460       -4.18349
C          8.89736       -1.77434       -5.52919
C         10.40837       -2.02472       -5.46649
C         10.99106       -2.54363       -6.78568
C         12.49200       -2.86141       -6.65448
C         13.02096       -3.45409       -7.95827
N         14.52934       -3.63964       -7.91110
C         15.09482       -4.46551       -6.79210
C         14.55763       -5.90242       -6.76702
O         13.75692       -6.33995       -7.56740
O         15.10710       -6.52709       -5.73333
C         14.73161       -7.94428       -5.51716
C         15.68912       -8.87908       -6.23477
C         15.37010      -10.34641       -5.91335
C         16.32118      -11.33247       -6.60290
C         16.00972      -12.79210       -6.26518
Br        15.22743       -4.24020       -9.65491
H          0.29373        0.55537        1.19092
H          0.19253       -0.72285       -0.03528
H          0.19470        0.98084       -0.52816
H          2.55738       -0.46537        0.84060
H          2.56112        1.22490        0.34974
H          2.28157        0.53642       -2.05255
H          2.25143       -1.15746       -1.56865
H          4.57674       -0.94113       -0.63486
H          4.61520        0.75623       -1.10363
H          4.38223        0.11108       -3.51864
H          4.28403       -1.58935       -3.06602
H          6.58699       -1.46173       -2.06107
H          6.69812        0.23629       -2.51609
H          6.51971       -0.38315       -4.94133
H          6.32869       -2.08068       -4.50550
H          8.59961       -2.05015       -3.40666
H          8.80738       -0.36705       -3.88519
H          8.67674       -1.02235       -6.30586
H          8.38759       -2.70050       -5.84601
H         10.61841       -2.75570       -4.66655
H         10.92597       -1.09463       -5.17559
H         10.83675       -1.80122       -7.58576
H         10.45392       -3.45526       -7.09550
H         12.62882       -3.57251       -5.82536
H         13.03995       -1.93920       -6.39384
H         12.84380       -2.78249       -8.80852
H         12.59572       -4.43936       -8.17535
H         14.96121       -2.70878       -7.84381
H         14.83281       -3.95631       -5.85364
H         16.18737       -4.46217       -6.89072
H         13.69416       -8.07274       -5.85172
H         14.78783       -8.05319       -4.42739
H         16.72092       -8.64385       -5.92860
H         15.62270       -8.71139       -7.32165
H         14.33204      -10.57213       -6.21187
H         15.41552      -10.50113       -4.82159
H         17.35871      -11.09781       -6.31182
H         16.26977      -11.18374       -7.69444
H         16.08884      -12.97812       -5.18395
H         16.70523      -13.47520       -6.77034
H         14.99075      -13.06656       -6.57504
