73

C         10.78692       -4.46559       10.30885
C         10.31090       -5.63756        9.44722
C         10.26241       -5.30527        7.95197
C          9.78678       -6.46394        7.07028
C          9.73793       -6.10892        5.58096
C          9.47080       -7.30481        4.66285
C          9.49888       -6.94916        3.17318
C          9.31794       -8.16352        2.25492
C          9.49898       -7.86642        0.77520
O         10.89069       -7.59487        0.52601
C         11.16969       -7.30380       -0.82752
C         12.68097       -7.11584       -1.02155
C         13.48885       -8.20338       -0.26883
N         14.58055       -7.44359        0.41459
C         13.98506       -6.05362        0.66636
O         13.11404       -5.85617       -0.41122
C         13.31052       -6.01993        2.03724
C         14.23481       -6.38973        3.19827
C         13.46001       -6.51671        4.53310
N         14.17016       -7.48250        5.37571
C         13.32160       -8.19360        6.34747
C         14.16693       -9.12690        7.19444
O         15.12011       -8.30795        7.87965
O         14.83365       -7.67650        2.94626
C         13.06063       -7.05790       -2.51043
C         12.43131       -5.88670       -3.29306
C         13.03623       -5.74451       -4.64557
C         12.43595       -5.95474       -5.82202
F         11.16179       -6.32849       -5.93280
F         13.01568       -5.81565       -7.00119
F         14.34799       -5.37584       -4.65895
H         10.80445       -4.72978       11.37492
H         10.12607       -3.59334       10.19532
H         11.80259       -4.14779       10.02887
H          9.30898       -5.95760        9.77893
H         10.97236       -6.50699        9.60599
H         11.26704       -4.98453        7.61881
H          9.60519       -4.43221        7.79436
H          8.78911       -6.79787        7.40225
H         10.45308       -7.33240        7.21863
H         10.69367       -5.63647        5.29216
H          8.96917       -5.33554        5.41311
H          8.49992       -7.76159        4.91807
H         10.22442       -8.08924        4.86064
H         10.45289       -6.44870        2.93886
H          8.71384       -6.20549        2.95458
H          8.30971       -8.58646        2.39195
H         10.02351       -8.96389        2.53673
H          8.89390       -6.99312        0.46643
H          9.18590       -8.72955        0.15928
H         10.65310       -6.38099       -1.14790
H         10.82659       -8.12810       -1.48492
H         13.92243       -8.95553       -0.93549
H         12.87872       -8.68640        0.50168
H         15.41337       -7.36612       -0.17784
H         14.83502       -7.83875        1.38077
H         14.80641       -5.32256        0.59868
H         12.43904       -6.69074        2.01697
H         12.92355       -4.99948        2.17617
H         15.04455       -5.64259        3.30168
H         12.46399       -6.93252        4.32401
H         13.31758       -5.52708        4.99809
H         14.93193       -7.03754        5.89486
H         12.56655       -8.77595        5.79836
H         12.78751       -7.48843        7.01074
H         14.67327       -9.86819        6.54984
H         13.51271       -9.66547        7.90140
H         15.69081       -8.87056        8.42411
H         14.80769       -8.08912        3.87914
H         12.78491       -8.01160       -2.98711
H         14.15731       -6.97350       -2.57827
H         12.58533       -4.94790       -2.73698
H         11.34826       -6.02368       -3.41099
