65

C         -1.81892       -1.20884        1.69807
C         -0.40472       -0.89908        1.25748
O          0.15922       -2.09995        0.63056
P          1.74015       -2.33061        0.57540
O          2.51213       -2.02699        1.80446
C          1.75766       -4.09754        0.09477
C          3.19617       -4.63194        0.14292
C          3.29662       -6.10617       -0.05883
N          2.29322       -6.90992       -0.45414
C          2.71453       -8.22315       -0.50758
C          4.02813       -8.23874       -0.12121
N          4.37209       -6.90378        0.13607
C          5.69533       -6.44292        0.59588
C          6.79786       -6.49955       -0.47936
C          6.77197       -5.44918       -1.60047
C          7.23438       -4.02537       -1.14887
Br         7.12829       -2.68412       -2.55429
F          6.42817       -3.61675       -0.11892
F          8.49164       -4.09114       -0.66476
Br         7.94955       -6.05846       -3.04253
F          5.49009       -5.32763       -2.10468
C          4.93979       -9.41650        0.06233
C          4.47283      -10.38740        1.16183
C          4.45885       -9.71133        2.54051
O          4.96797       -8.59978        2.71199
N          3.85203      -10.44310        3.51836
C          3.66805      -10.14927        4.89459
C          4.08353       -8.94831        5.49164
C          3.84579       -8.75028        6.85397
C          3.20681       -9.72337        7.62519
C          2.79804      -10.91797        7.02439
C          3.02591      -11.13162        5.66718
O          2.27962       -1.61884       -0.75998
C          3.19962       -0.47660       -0.71399
C          2.46429        0.82110       -0.98396
H         -2.26246       -0.31191        2.15186
H         -1.83219       -2.01263        2.44539
H         -2.44410       -1.50556        0.84583
H          0.23320       -0.61894        2.10803
H         -0.38423       -0.09252        0.50935
H          1.30945       -4.18474       -0.90649
H          1.11156       -4.61210        0.82148
H          3.63915       -4.37317        1.11888
H          3.81346       -4.12541       -0.61555
H          1.36008       -6.57267       -0.67096
H          2.05268       -9.02834       -0.80148
H          5.96744       -7.10736        1.42722
H          5.57103       -5.43648        1.00480
H          6.78846       -7.48119       -0.96885
H          7.76842       -6.41880        0.03024
H          5.95014       -9.07314        0.31014
H          5.01343       -9.96476       -0.88843
H          5.16354      -11.24524        1.18999
H          3.47876      -10.79776        0.92593
H          3.48746      -11.34889        3.23466
H          4.58544       -8.19141        4.89637
H          4.17061       -7.81675        7.31519
H          3.02840       -9.55500        8.68714
H          2.30051      -11.68898        7.61324
H          2.70630      -12.06757        5.20132
H          3.94237       -0.68413       -1.49599
H          3.69980       -0.47160        0.26406
H          1.91699        0.77553       -1.93451
H          3.18878        1.64538       -1.04543
H          1.75669        1.05853       -0.17823
