120

C          0.75481       -0.30780       -0.20862
C          2.26238       -0.10347       -0.37545
C          2.99206        0.14274        0.94894
C          4.50208        0.34667        0.79136
C          5.19678        0.77481        2.08626
C          6.70111        1.02157        1.93801
C          7.36094        1.50532        3.23159
C          8.86192        1.78244        3.10808
C          9.48807        2.26898        4.41776
C         10.99041        2.55381        4.33232
C         11.58374        3.01223        5.66709
C         13.08029        3.33381        5.61568
C         13.63255        3.78129        6.97190
C         15.09408        4.23864        6.93528
C         15.54881        4.82680        8.27533
C         16.91589        5.53028        8.20395
C         17.18503        6.47062        9.38566
N         18.71880        6.55566        9.54935
C         19.20994        7.38246       10.71641
C         18.56020        8.76808       10.62194
N         17.12571        8.68531       10.49297
C         16.68086        7.94581        9.30919
C         15.16512        8.10050        9.07382
C         14.72968        8.05512        7.60020
C         13.22217        7.83571        7.43293
C         12.80501        7.53080        5.99055
C         11.32607        7.15610        5.85856
C         10.91158        6.73062        4.44646
C          9.43300        6.34377        4.34964
C          8.99041        5.88105        2.95806
C          7.50176        5.52624        2.89198
C          7.02525        5.05653        1.51431
C          5.52803        4.73543        1.47114
C          5.03254        4.24631        0.10612
C          3.52906        3.95906        0.07698
C         16.33329        8.63113       11.69806
O         15.50392        9.77617       11.75947
C         14.52060        9.69320       12.80195
C         13.58551       10.88596       12.68175
C         12.47072       10.87368       13.73503
C         11.52110       12.06815       13.60878
H          0.25945       -0.47271       -1.17525
H          0.28293        0.56850        0.26041
H          0.53735       -1.17806        0.42828
H          2.44625        0.75171       -1.04794
H          2.70205       -0.98196       -0.87736
H          2.80410       -0.70033        1.63668
H          2.55441        1.03045        1.43940
H          4.68541        1.10740        0.01334
H          4.96154       -0.58355        0.41406
H          5.02755        0.01018        2.86456
H          4.71667        1.69477        2.46334
H          6.87146        1.76571        1.14111
H          7.19505        0.09593        1.59505
H          7.19524        0.75657        4.02652
H          6.85133        2.42205        3.57566
H          9.03278        2.53315        2.31713
H          9.37897        0.86661        2.77174
H          9.30809        1.51582        5.20527
H          8.96487        3.18132        4.75280
H         11.17684        3.32294        3.56214
H         11.51811        1.64707        3.98761
H         11.40523        2.23277        6.42858
H         11.03706        3.90448        6.01899
H         13.25722        4.12915        4.87054
H         13.63935        2.45257        5.25691
H         13.51676        2.96488        7.70535
H         13.01379        4.61392        7.34935
H         15.20694        5.00838        6.15193
H         15.75123        3.40410        6.63802
H         15.58784        4.03947        9.04582
H         14.78267        5.53733        8.61282
H         17.00635        6.09333        7.26024
H         17.70168        4.75274        8.16509
H         16.83156        6.01635       10.32581
H         19.09704        6.95363        8.67493
H         19.08869        5.59773        9.60763
H         20.30723        7.41236       10.66251
H         18.90574        6.85224       11.62845
H         18.97922        9.30773        9.75208
H         18.82895        9.35162       11.51159
H         17.19632        8.41044        8.44212
H         14.88019        9.06752        9.51041
H         14.61491        7.33987        9.65115
H         15.25027        7.25049        7.05950
H         15.03675        8.99040        7.10385
H         12.66922        8.71147        7.81151
H         12.91476        6.98999        8.07402
H         13.42277        6.69942        5.60739
H         13.03097        8.39575        5.34389
H         10.70210        8.00667        6.18329
H         11.10019        6.33470        6.56174
H         11.53607        5.87921        4.12390
H         11.12621        7.54786        3.73614
H          8.81349        7.20396        4.65879
H          9.21946        5.54490        5.08164
H          9.59181        5.00731        2.65258
H          9.21190        6.67214        2.22044
H          6.90828        6.40530        3.19938
H          7.28192        4.74305        3.63824
H          7.60091        4.16447        1.21137
H          7.25481        5.83234        0.76260
H          4.95578        5.63325        1.76536
H          5.29714        3.97162        2.23394
H          5.58846        3.33584       -0.17494
H          5.27986        4.99780       -0.66307
H          3.24733        3.22010        0.84071
H          3.21098        3.56354       -0.89761
H          2.94510        4.87066        0.27228
H         17.00659        8.59258       12.57870
H         15.69839        7.71921       11.73469
H         15.01806        9.67891       13.79191
H         13.95728        8.74298       12.70117
H         13.14773       10.88781       11.66986
H         14.17780       11.81082       12.76948
H         12.91779       10.86438       14.74318
H         11.89548        9.93632       13.64852
H         12.05778       13.02006       13.73205
H         10.73180       12.03107       14.37123
H         11.03171       12.08983       12.62415
