69

N          1.70271        0.90551        1.49670
C          2.99963        0.61263        0.88782
C          3.06808        1.22520       -0.51810
C          4.39146        0.87582       -1.21314
C          4.95410        1.75771       -2.34813
C          6.32040        1.16128       -2.76323
C          7.05018        1.75575       -3.97725
C          8.47829        1.20911       -4.09384
C          9.23265        1.74253       -5.32333
N         10.62444        1.33749       -5.33651
C         11.65828        2.03571       -4.74327
C         12.80150        1.26446       -4.82565
C         12.44879        0.05116       -5.48106
C         11.10104        0.11886       -5.77907
C          5.04620        3.24809       -1.92195
C          3.93589        3.99628       -2.66390
C          3.91053        3.29950       -4.01234
N          4.06547        1.81947       -3.67875
C          2.72872        1.10508       -3.77208
C          2.80825       -0.41397       -3.83558
P          1.13165       -1.04913       -4.22936
O          0.53100       -0.38023       -5.40816
O          1.30893       -2.63310       -4.33191
C          1.12027       -3.33671       -5.61126
C         -0.27229       -3.92727       -5.69661
O          0.43675       -0.80137       -2.80824
C         -1.02915       -0.85276       -2.67840
C         -1.48765       -2.19732       -2.14948
H          1.72398        0.73367        2.50129
H          0.97466        0.30109        1.11383
H          3.24097       -0.46867        0.82553
H          3.78066        1.06945        1.51595
H          2.92716        2.31155       -0.41613
H          2.20629        0.84782       -1.08837
H          4.39309       -0.17825       -1.52519
H          5.19049        0.93327       -0.45394
H          6.20000        0.07455       -2.91050
H          6.97052        1.26692       -1.88076
H          7.09487        2.85538       -3.90866
H          6.51397        1.52827       -4.92066
H          8.46375        0.10831       -4.12935
H          9.04604        1.48255       -3.19037
H          9.19878        2.84308       -5.34365
H          8.75534        1.39064       -6.25176
H         11.49444        3.02746       -4.33302
H         13.78647        1.55182       -4.47245
H         13.11204       -0.77199       -5.72604
H         10.44577       -0.58586       -6.28152
H          6.02641        3.65923       -2.19974
H          4.95520        3.33974       -0.83340
H          4.13919        5.06829       -2.77067
H          2.96712        3.89303       -2.15439
H          4.77372        3.58489       -4.62782
H          2.99639        3.44063       -4.59839
H          4.65859        1.40042       -4.40591
H          2.27611        1.46494       -4.70608
H          2.10629        1.45545       -2.94379
H          3.15260       -0.88428       -2.90814
H          3.46022       -0.74718       -4.65826
H          1.89600       -4.11307       -5.61438
H          1.30621       -2.63239       -6.43380
H         -0.46521       -4.61194       -4.86039
H         -0.37048       -4.49664       -6.63176
H         -1.03500       -3.13733       -5.70166
H         -1.47408       -0.61260       -3.65500
H         -1.27003       -0.03890       -1.98193
H         -1.26744       -3.00629       -2.85687
H         -2.57468       -2.17079       -1.98877
H         -1.00673       -2.43174       -1.19068
