52

C          6.92608        2.91682        1.87146
O          6.35923        1.70044        1.39566
C          6.86697        1.32755        0.13258
C          6.16518        0.03663       -0.26808
O          6.68138       -0.34902       -1.55029
C          6.15635       -1.56407       -2.03425
C          6.72304       -1.77575       -3.43295
S          8.54336       -1.57890       -3.42561
C          9.16508       -3.18567       -2.75450
C         10.66379       -3.14790       -2.64477
C         11.45609       -3.82869       -3.57989
C         12.84733       -3.79772       -3.45558
C         13.44352       -3.08410       -2.41550
C         12.66865       -2.38873       -1.47015
C         11.27496       -2.43566       -1.60015
C         13.31969       -1.60840       -0.35844
C          8.87642       -1.75800       -5.23240
O          8.31942       -0.60540       -5.79265
C          8.96445       -0.18638       -7.02667
O          8.88547       -1.15063       -8.01425
C          7.56551       -1.34507       -8.57542
C          7.36518       -2.81143       -8.88032
O          7.24804       -3.52882       -7.63957
H          6.46681        3.12319        2.84474
H          6.71367        3.75481        1.18364
H          8.02028        2.82755        1.99729
H          7.96309        1.16344        0.17246
H          6.67411        2.11065       -0.62719
H          5.07432        0.19630       -0.32746
H          6.36053       -0.75245        0.48031
H          5.05228       -1.53464       -2.11848
H          6.40648       -2.40881       -1.36131
H          6.38755       -0.98637       -4.11954
H          6.47290       -2.76060       -3.84959
H          8.79516       -3.98620       -3.40920
H          8.67344       -3.26159       -1.77403
H         10.99023       -4.40446       -4.38249
H         13.46766       -4.34210       -4.16813
H         14.53138       -3.07269       -2.32492
H         10.65503       -1.91562       -0.86432
H         14.22574       -2.11034        0.00467
H         12.63873       -1.46732        0.49040
H         13.62166       -0.60975       -0.71023
H          8.41066       -2.68995       -5.59706
H          9.97591       -1.81106       -5.32401
H         10.03608       -0.01165       -6.83991
H          8.44226        0.75135       -7.27370
H          7.48320       -0.75764       -9.50437
H          6.79664       -1.00657       -7.86351
H          8.21815       -3.18562       -9.47186
H          6.44752       -2.91603       -9.48477
H          7.10528       -4.46386       -7.85190
