51

C          1.22427        0.04047        0.85521
C          2.18984       -0.23539       -0.27480
O          2.95155       -1.44303        0.07670
C          3.84984       -1.85660       -0.82673
O          4.04996       -1.36035       -1.91802
C          4.51606       -3.14703       -0.33895
N          5.99678       -3.07512        0.08070
C          6.12098       -2.03132        1.19274
O          5.91207       -0.82354        0.54760
C          6.66064       -0.87208       -0.68633
C          6.83710       -2.36818       -1.05677
C          8.31236       -2.74654       -1.37440
C          9.40946       -3.07656       -0.36295
C          9.99701       -4.34766       -0.51440
C         10.99024       -4.82799        0.33497
C         11.43774       -4.01798        1.37749
C         10.93340       -2.72443        1.49136
C          9.94853       -2.21359        0.62645
C          9.61305       -0.74785        0.77721
C          6.32723       -4.52788        0.58395
C          6.75285       -5.49082       -0.52686
O          5.91298       -5.35345       -1.67085
C          7.29704       -4.59609        1.76234
H          0.64550        0.94431        0.62251
H          1.75386        0.21269        1.80121
H          0.51753       -0.78822        0.99059
H          2.91334        0.57929       -0.42037
H          1.68378       -0.42188       -1.23183
H          4.46931       -3.88885       -1.14321
H          3.97589       -3.51270        0.54009
H          7.13032       -2.13901        1.61563
H          5.34637       -2.18151        1.95495
H          7.62784       -0.37943       -0.55753
H          6.07084       -0.34047       -1.43956
H          6.26944       -2.58802       -1.96671
H          8.63129       -1.87986       -1.98270
H          8.27710       -3.58142       -2.08473
H          9.67776       -4.97656       -1.34828
H         11.41467       -5.81916        0.17499
H         12.20449       -4.36989        2.06782
H         11.33573       -2.06272        2.26058
H         10.38186       -0.25436        1.38335
H          8.65374       -0.55640        1.28018
H          9.59323       -0.23281       -0.19387
H          5.34362       -4.85932        0.94196
H          6.66478       -6.49763       -0.08335
H          7.80924       -5.33560       -0.78134
H          6.11676       -6.06144       -2.30095
H          8.27859       -4.16336        1.54769
H          7.45307       -5.65875        1.99310
H          6.88134       -4.13951        2.66771
