64

C          2.08474       -0.24868       -1.69386
C          2.60236       -0.60179       -0.29746
C          3.27267        0.57985        0.41310
C          3.77610        0.20043        1.81275
N          4.35848        1.31679        2.56802
C          3.66531        2.11785        3.41509
O          4.12407        3.13284        3.94203
C          2.19124        1.71337        3.70584
N          1.67711        2.44754        4.85477
C          1.63598        3.78335        4.97604
N          1.19368        4.08672        6.20608
C          0.93423        2.90644        6.90120
C          1.26361        1.88631        6.04780
C          0.34319        2.83005        8.26533
C         -1.17335        3.17355        8.36721
C         -2.04356        2.44469        7.32797
N         -1.94484        3.10688        6.01551
O         -1.61171        2.95337        9.69987
C          0.94671        5.45332        6.70789
C          2.00116        6.47044        6.27293
C          1.75675        7.82988        6.93984
C          2.84340        8.85924        6.58189
N          2.60945       10.15496        7.18933
C          2.95733       10.50807        8.47838
C          2.45480       11.77077        8.72913
C          1.77145       12.19669        7.55563
C          1.87656       11.18049        6.62514
C          5.73146        1.70632        2.23217
H          1.60260       -1.11353       -2.16735
H          2.90182        0.07784       -2.35282
H          1.34461        0.56371       -1.65446
H          3.31856       -1.43696       -0.36887
H          1.76820       -0.97281        0.32281
H          2.56097        1.41979        0.49468
H          4.11444        0.95049       -0.19348
H          4.55110       -0.57731        1.73706
H          2.95849       -0.24994        2.39210
H          2.08648        0.64737        3.93504
H          1.56624        1.92812        2.82655
H          1.94872        4.48861        4.21875
H          1.21761        0.81378        6.19195
H          0.88927        3.47063        8.97411
H          0.48000        1.79728        8.62135
H         -1.30801        4.25674        8.21353
H         -3.07021        2.40365        7.73157
H         -1.69965        1.40265        7.21519
H         -2.55944        3.92263        5.99660
H         -2.29005        2.48620        5.28312
H         -1.66559        1.99842        9.87105
H          0.93133        5.38206        7.80292
H         -0.06163        5.75071        6.38236
H          1.98713        6.59649        5.17798
H          3.00091        6.08928        6.53688
H          1.72889        7.71413        8.03514
H          0.77567        8.23274        6.64240
H          2.89465        8.99677        5.49101
H          3.83103        8.49497        6.90486
H          3.54473        9.83846        9.09891
H          2.58198       12.33289        9.64855
H          1.27428       13.14877        7.40120
H          1.51073       11.10556        5.60585
H          6.32539        0.79915        2.06639
H          6.15364        2.28312        3.06009
H          5.76344        2.32490        1.32261
