56

C          0.88965       -0.57896       -0.24325
C          2.05700       -0.27151       -0.31564
C          3.45599        0.12530       -0.36602
C          3.84005        1.03132        0.82166
C          5.32516        1.45740        0.76286
C          5.71747        2.33593        1.91652
C          5.68718        3.71132        1.82638
C          5.98614        4.55526        2.92238
C          5.97379        5.96564        2.84735
C          6.27515        6.74249        3.95707
C          6.27536        8.23980        3.89019
C          6.59340        6.09594        5.19302
C          6.61616        4.72824        5.30796
C          6.31724        3.92611        4.17103
C          6.34238        2.53220        4.21561
N          6.06079        1.76935        3.14236
C          6.20379        0.30036        3.28926
C          7.63097       -0.15187        2.94057
C          7.68520       -1.67151        2.82534
C          9.05958       -2.29469        2.37560
C         10.38043       -1.95498        3.17473
C         10.52126       -2.25934        4.71712
C         10.37953       -3.72609        5.28993
C         11.35885       -4.83950        4.75976
F         12.63519       -4.42607        4.82750
F         11.20880       -5.92959        5.52771
F         11.06714       -5.16496        3.48831
F         10.59093       -3.60677        6.62555
F          9.10835       -4.15495        5.08971
F         11.74207       -1.79188        5.07038
F          9.57936       -1.50479        5.36423
F         11.39409       -2.57307        2.52892
F         10.56850       -0.60124        3.06017
F          8.91145       -3.63621        2.32414
F          9.28987       -1.83525        1.10843
F          7.29296       -2.25261        3.99865
F          6.78221       -2.07492        1.86509
H         -0.14142       -0.86163       -0.19717
H          3.65688        0.64987       -1.31566
H          4.09465       -0.77496       -0.37092
H          3.61909        0.50145        1.76140
H          3.20396        1.92860        0.82162
H          5.49922        2.03083       -0.15852
H          5.97070        0.56970        0.69004
H          5.41756        4.15321        0.86677
H          5.72451        6.44375        1.89848
H          6.02408        8.60801        2.88959
H          7.26136        8.63906        4.17145
H          5.55242        8.65847        4.60661
H          6.82431        6.71431        6.06188
H          6.86194        4.25051        6.25739
H          6.59827        1.99456        5.12889
H          5.46272       -0.18663        2.65020
H          5.95564        0.05047        4.32700
H          8.33903        0.18298        3.70884
H          7.95584        0.27347        1.98104
