46

C          2.53054       -3.56113        0.80198
C          2.80238       -2.36443        1.33929
C          3.04084       -1.10785        0.54524
C          4.53246       -0.73256        0.57884
N          5.31651       -1.92191        0.01944
C          6.80164       -1.76906        0.18193
C          7.21876       -0.51289       -0.56494
N          6.44058        0.61748       -0.08619
C          4.96643        0.58876       -0.11445
C          4.30218        0.78253       -1.51816
C          4.49069       -0.27066       -2.62207
C          3.84176        0.16204       -3.93416
F          2.50803        0.37059       -3.78740
F          4.38665        1.31180       -4.40402
F          4.00607       -0.79076       -4.88351
C          4.48170        1.80621        0.77469
C          4.82198        1.69086        2.26639
O          3.92661        0.77615        2.92648
C          5.03647        3.17122        0.28116
C          4.06304        4.32848        0.52858
H          2.37687       -4.44436        1.42173
H          2.39966       -3.69162       -0.27630
H          2.88889       -2.26484        2.42625
H          2.48635       -0.27259        0.99358
H          2.67910       -1.23177       -0.48699
H          4.85145       -0.68716        1.62816
H          5.09146       -2.04958       -0.97760
H          4.94069       -2.76021        0.50255
H          7.28828       -2.67026       -0.21137
H          6.99381       -1.68121        1.25878
H          7.16001       -0.70855       -1.65593
H          8.27873       -0.32117       -0.34728
H          6.79590        1.49905       -0.44946
H          4.67366        1.73367       -1.92059
H          3.22266        0.93041       -1.36580
H          4.01541       -1.23796       -2.38762
H          5.54670       -0.45193       -2.86079
H          3.38339        1.84199        0.69238
H          4.72631        2.69025        2.71743
H          5.87309        1.36871        2.38095
H          3.97468        0.93672        3.88084
H          5.27106        3.14837       -0.79279
H          5.99226        3.37500        0.79173
H          3.14320        4.20242       -0.05975
H          4.51411        5.28746        0.24390
H          3.77277        4.40484        1.58629
