68

C          9.18932        4.54237        3.91145
C          8.74637        4.66225        2.45183
C          9.17413        3.46653        1.59238
C          8.71665        3.58302        0.13387
C          9.16272        2.40424       -0.71375
O          8.67151        2.59773       -2.05578
C          9.08888        1.59269       -2.94639
N          8.58546        1.92400       -4.26414
C          9.04025        2.95855       -5.01417
N          8.20133        3.61452       -5.85412
C          8.72084        4.36039       -7.01766
C          8.64120        5.88936       -6.93018
C          9.66392        6.53678       -5.99078
O         10.63337        5.90764       -5.53465
N          9.44450        7.85209       -5.74581
C         10.20119        8.78777       -4.98919
C         11.39686        8.46904       -4.32713
C         12.06007        9.46902       -3.61282
C         11.55464       10.76905       -3.54924
C         10.36328       11.07853       -4.21132
C          9.68885       10.09383       -4.92828
C          6.73806        3.60833       -5.67195
C          5.95624        2.74263       -6.67551
C          6.27788        1.25594       -6.53067
S          5.43474        0.27327       -7.79662
C          6.37204       -1.22870       -7.72801
S          7.60595       -1.52825       -6.67787
N          5.93029       -2.14820       -8.67811
C          4.97667       -1.96642       -9.69097
C          4.89299       -3.16494      -10.33688
N          5.75228       -4.09868       -9.76548
C          6.35604       -3.48115       -8.79073
N         10.32397        3.30811       -4.96489
H          8.87412        5.41589        4.49765
H         10.28369        4.46602        3.99320
H          8.75900        3.64996        4.38886
H          9.15771        5.58740        2.01421
H          7.64943        4.76754        2.40521
H          8.77027        2.53894        2.03363
H         10.27305        3.36761        1.63044
H          9.11224        4.50937       -0.31322
H          7.61795        3.65479        0.08928
H          8.76862        1.45249       -0.30994
H         10.26727        2.32817       -0.73546
H          8.67949        0.59987       -2.68520
H         10.19310        1.49920       -2.95510
H          7.68704        1.52715       -4.51392
H          8.13796        4.03753       -7.89233
H          9.75465        4.04216       -7.19312
H          7.62291        6.22014       -6.67355
H          8.83263        6.27767       -7.94451
H          8.62065        8.25320       -6.18635
H         11.79897        7.46200       -4.37542
H         12.99100        9.22239       -3.10180
H         12.08563       11.53853       -2.98954
H          9.95648       12.08900       -4.17229
H          8.75882       10.33829       -5.44776
H          6.39536        4.64985       -5.76112
H          6.52417        3.31075       -4.63663
H          6.16121        3.07425       -7.70490
H          4.88627        2.93189       -6.50118
H          5.96601        0.87176       -5.54512
H          7.35047        1.04306       -6.65759
H          4.47788       -1.01962       -9.85757
H          4.26725       -3.42169      -11.18598
H          7.09666       -3.88809       -8.11064
H         10.97226        2.73042       -4.44500
H         10.58898        4.28840       -5.22179
