64

C          2.71297       -1.59999        1.91308
C          3.90736       -0.97052        1.19250
C          3.83419        0.56055        1.13574
C          5.03640        1.18887        0.42193
C          4.94557        2.71662        0.40125
N          6.11343        3.34692       -0.23310
N          7.02091        3.98701        0.57517
C          8.00941        4.31020       -0.21811
N          7.76182        3.92130       -1.50444
C          6.54318        3.30372       -1.52226
N          5.90627        2.83828       -2.62179
C          6.56416        2.01809       -3.68344
C          8.05914        2.28254       -3.90212
O          8.41875        3.66215       -4.06521
C          6.33711        0.51921       -3.44250
C          4.45238        3.07505       -2.78627
C          4.05573        4.55254       -2.67065
C          4.86134        5.54353       -3.53658
C          4.81016        5.20587       -5.03787
C          5.84416        5.95976       -5.89790
C          5.92474        5.42626       -7.30086
C          5.40489        5.97305       -8.41581
C          4.64849        7.27436       -8.44804
C          5.54986        5.29101       -9.75021
C          4.38986        6.97658       -3.24960
H          2.79359       -2.69462        1.93300
H          1.76480       -1.34610        1.41674
H          2.64630       -1.25346        2.95454
H          3.97420       -1.36955        0.16591
H          4.84227       -1.26820        1.69602
H          3.76606        0.96129        2.16140
H          2.90203        0.86425        0.62759
H          5.09781        0.80258       -0.60834
H          5.97131        0.89754        0.92697
H          4.93483        3.12709        1.41799
H          4.03392        3.06317       -0.10511
H          8.91186        4.82095        0.10116
H          8.25964        4.13517       -2.39143
H          6.04633        2.31464       -4.61012
H          8.37077        1.69737       -4.78101
H          8.65846        1.92143       -3.05339
H          7.97295        4.04065       -4.84227
H          6.84402        0.18755       -2.52532
H          6.72619       -0.07168       -4.28280
H          5.26811        0.29213       -3.34711
H          3.86162        2.46010       -2.08809
H          4.21053        2.69488       -3.78631
H          4.11814        4.87874       -1.61899
H          2.98521        4.61236       -2.92963
H          5.92058        5.47714       -3.22511
H          3.80048        5.40710       -5.43346
H          4.97180        4.12607       -5.19373
H          6.83725        5.87679       -5.41266
H          5.61960        7.03504       -5.90083
H          6.44307        4.46485       -7.41278
H          4.53967        7.74570       -7.46423
H          3.63873        7.12031       -8.86036
H          5.14646        7.99454       -9.11647
H          6.12850        4.36127       -9.67713
H          6.04928        5.95139      -10.47726
H          4.56334        5.05159      -10.17875
H          3.34659        7.11913       -3.56919
H          5.00328        7.71969       -3.77462
H          4.44420        7.20754       -2.17621
