26

C          0.95861        0.04641       -0.01496
C          2.16066        0.17834       -0.00787
C          3.61056        0.30176        0.03403
C          4.23299       -0.54078        1.16591
C          5.76160       -0.44282        1.19752
C          6.39206       -1.20634        2.36311
C          7.92998       -1.07612        2.43569
N          8.33806       -2.35891        3.04168
C          7.39683       -3.28448        2.99449
C          6.16080       -2.74020        2.34444
N          7.52751       -4.52844        3.43328
H         -0.10653       -0.05115       -0.03885
H          3.88625        1.36192        0.16489
H          4.03251       -0.00714       -0.93766
H          3.91379       -1.58704        1.03419
H          3.81430       -0.20723        2.12874
H          6.06094        0.61550        1.27193
H          6.18428       -0.81579        0.24780
H          5.97845       -0.82124        3.30948
H          8.26542       -0.24138        3.06254
H          8.39212       -0.97853        1.44044
H          9.28119       -2.52484        3.38691
H          5.24699       -3.06247        2.85920
H          6.11526       -3.13723        1.31455
H          8.38688       -4.88328        3.84202
H          6.74360       -5.16919        3.37877
