80

C          4.56621       -1.97379       -2.34270
C          5.03397       -0.62409       -1.79318
C          5.18387       -0.61030       -0.26749
C          5.62201        0.74815        0.28979
C          5.82776        0.75297        1.80852
C          6.22096        2.12962        2.35599
C          6.49034        2.13486        3.86508
C          6.84883        3.53722        4.37606
N          7.28883        3.57796        5.78020
C          6.42863        3.76221        6.79561
N          5.09361        3.72819        6.59623
C          4.09799        4.32821        7.50570
C          4.79989        5.10463        8.62626
C          5.92264        4.18342        9.12499
N          6.89843        3.97208        8.05021
C          5.30119        6.49533        8.13020
C          6.50761        7.04606        8.89438
O          7.64381        6.56177        8.74236
N          6.27062        8.07359        9.73646
C          7.31830        8.71961       10.53149
C          6.92063       10.13884       10.92889
C          8.00684       10.83561       11.75780
C          7.61148       12.24661       12.19773
C          8.73119        3.40971        6.03639
C          9.52867        4.71829        5.96093
C         11.02900        4.46955        6.13793
C         11.85407        5.76474        6.05933
N         13.28081        5.52551        6.16791
C         14.11487        5.20000        5.11721
C         15.36221        4.90406        5.63334
C         15.28083        5.04459        7.04727
C         13.98613        5.42192        7.35008
H          4.48804       -1.95591       -3.43823
H          3.57770       -2.24665       -1.94424
H          5.26468       -2.78007       -2.07336
H          4.32297        0.16350       -2.09543
H          5.99872       -0.35156       -2.25322
H          5.91265       -1.38371        0.03348
H          4.22510       -0.90336        0.19631
H          4.87094        1.51154        0.02010
H          6.55940        1.06041       -0.20322
H          6.60623        0.01741        2.07449
H          4.90406        0.41045        2.30666
H          5.42495        2.85748        2.11840
H          7.12333        2.48754        1.82992
H          7.31684        1.44437        4.09938
H          5.61140        1.74129        4.40576
H          6.00942        4.23823        4.24505
H          7.67532        3.94808        3.77845
H          4.75530        3.34637        5.72096
H          3.47640        3.52728        7.93372
H          3.44216        4.98297        6.91273
H          4.07505        5.25125        9.43947
H          5.50702        3.21562        9.44286
H          6.46905        4.60576        9.97395
H          7.66671        4.65233        8.11569
H          4.45668        7.19849        8.14977
H          5.62531        6.42574        7.08066
H          5.32496        8.43444        9.81515
H          8.23782        8.71499        9.92874
H          7.52446        8.11134       11.42868
H          5.98188       10.11059       11.51109
H          6.71122       10.72862       10.02036
H          8.93812       10.87792       11.16897
H          8.23563       10.22221       12.64522
H          7.40532       12.89450       11.33350
H          8.41254       12.71786       12.78193
H          6.70861       12.23217       12.82577
H          9.10461        2.69537        5.28780
H          8.85085        2.93120        7.01838
H          9.16733        5.42686        6.72530
H          9.34369        5.20072        4.98629
H         11.39161        3.77460        5.36330
H         11.22392        3.98336        7.10730
H         11.55520        6.45690        6.86147
H         11.66352        6.27940        5.10465
H         13.75363        5.22299        4.09368
H         16.24030        4.63554        5.05514
H         16.08508        4.90442        7.76229
H         13.51052        5.63978        8.30105
