80

C          1.28382        3.06687        1.11233
C          2.78133        2.80056        0.93825
C          3.42171        2.11586        2.15106
C          4.91097        1.80558        1.96872
C          5.54888        1.12087        3.18197
C          7.01369        0.72681        2.96628
C          7.64733        0.03282        4.17649
C          9.07476       -0.46275        3.92197
C          9.72190       -1.11222        5.14942
C         11.12551       -1.66522        4.87661
C         11.78170       -2.26794        6.12598
C         13.15412       -2.84368        5.83221
O         13.73849       -3.29568        7.08453
C         14.96316       -3.92312        6.93096
N         15.42382       -4.25774        8.32386
C         14.54547       -5.30091        8.98580
C         14.58413       -5.19019       10.50693
C         13.83889       -6.37425       11.16486
C         14.39634       -7.66562       10.78151
C         14.87711       -8.71589       10.42065
C         16.90103       -4.58598        8.37251
C         17.68099       -3.29388        8.60627
O         16.97589       -2.62570        9.63828
C         17.58479       -1.40820       10.11174
C         16.87381       -0.97356       11.37370
O         17.20602       -1.87712       12.40821
C         16.63611       -1.52519       13.66940
C         17.25140       -2.43727       14.72161
O         16.60784       -2.15490       15.94877
C         17.18210       -2.85943       17.04232
H          0.85673        3.56319        0.23010
H          1.09056        3.71221        1.98232
H          0.72775        2.13016        1.26771
H          3.30534        3.75095        0.73992
H          2.94262        2.17586        0.04321
H          2.87980        1.17760        2.36605
H          3.28484        2.75228        3.04335
H          5.45658        2.73959        1.74637
H          5.04049        1.16297        1.07987
H          4.96704        0.21702        3.43572
H          5.47095        1.78470        4.06102
H          7.60319        1.62461        2.70962
H          7.08227        0.06099        2.08786
H          7.01637       -0.82249        4.47638
H          7.64611        0.72419        5.03747
H          9.70201        0.38031        3.58263
H          9.06416       -1.18593        3.08770
H          9.07520       -1.92781        5.51708
H          9.77329       -0.37388        5.96851
H         11.76527       -0.85874        4.47875
H         11.06670       -2.42892        4.08202
H         11.14174       -3.06155        6.54376
H         11.88172       -1.49540        6.90535
H         13.82183       -2.08459        5.38531
H         13.08989       -3.70010        5.13694
H         15.72877       -3.26752        6.47491
H         14.90738       -4.87244        6.36302
H         15.34944       -3.38046        8.88229
H         14.89807       -6.28392        8.64301
H         13.53094       -5.13094        8.60460
H         14.11521       -4.24680       10.82603
H         15.62025       -5.17471       10.87664
H         12.76854       -6.34252       10.90060
H         13.88685       -6.25734       12.25833
H         15.28145       -9.66530       10.13608
H         17.18452       -5.09517        7.44300
H         17.04687       -5.27485        9.21180
H         17.74137       -2.67170        7.69195
H         18.71215       -3.54738        8.90844
H         17.50854       -0.62443        9.33758
H         18.64927       -1.59566       10.33136
H         15.77807       -0.94174       11.20153
H         17.19770        0.05667       11.62180
H         15.53681       -1.65111       13.65378
H         16.85262       -0.46883       13.91330
H         18.34118       -2.25076       14.78849
H         17.11230       -3.49835       14.42976
H         16.61661       -2.57525       17.93711
H         18.24412       -2.58837       17.18333
H         17.11127       -3.95363       16.90179
