108

C          0.27758        0.31067        0.33157
C          1.80240        0.30031        0.19336
C          2.37735       -1.08734       -0.11340
C          3.90064       -1.09939       -0.27717
C          4.48501       -2.49130       -0.54005
C          6.00737       -2.49148       -0.71297
C          6.60784       -3.88235       -0.94212
C          8.13124       -3.86920       -1.10615
C          8.74910       -5.25891       -1.29118
C         10.27297       -5.23500       -1.45075
C         10.90328       -6.62619       -1.57170
C         12.42191       -6.60077       -1.77614
C         13.05734       -7.99474       -1.80031
C         14.56130       -7.98772       -2.09469
C         15.19594       -9.38124       -2.03341
C         16.66761       -9.41551       -2.45991
C         17.30793      -10.79776       -2.29333
C         18.72075      -10.89868       -2.87950
C         19.37470      -12.26021       -2.61090
C         20.69293      -12.43238       -3.38342
N         21.23464      -13.81076       -3.41368
C         22.29979      -14.16555       -2.42571
O         22.68246      -15.51033       -2.58421
C         22.84551      -15.84930       -3.94481
N         21.53854      -15.79931       -4.59855
C         20.81021      -14.68716       -4.34270
N         19.69153      -14.43332       -5.04447
C         21.00631      -16.95773       -5.32900
C         21.28883      -16.93209       -6.80991
C         20.40628      -16.83988       -7.80938
Br        18.53338      -16.66429       -7.54540
Br        23.13021      -17.07425       -7.28516
C         21.86080      -14.04343       -0.96064
O         21.96304      -12.68406       -0.58630
C         21.85388      -12.37666        0.76917
C         21.34632      -13.29544        1.69386
C         21.23463      -12.96733        3.05258
C         20.67768      -13.95716        4.04348
C         21.64584      -11.69208        3.45488
C         22.15061      -10.78702        2.52224
C         22.27649      -11.09009        1.16018
C         22.84994      -10.03996        0.21770
C         24.12181      -10.49358       -0.52303
C         21.79402       -9.47776       -0.75115
H         -0.10059        1.31657        0.56128
H         -0.05506       -0.36084        1.13751
H         -0.20976       -0.02344       -0.59673
H          2.25941        0.68307        1.12194
H          2.10533        1.00265       -0.60193
H          1.90755       -1.48155       -1.03205
H          2.09042       -1.78518        0.69340
H          4.36778       -0.67576        0.62956
H          4.18299       -0.42327       -1.10358
H          4.01377       -2.92285       -1.44073
H          4.21249       -3.16329        0.29299
H          6.47393       -2.03876        0.17979
H          6.27783       -1.83381       -1.55797
H          6.14681       -4.33874       -1.83582
H          6.33784       -4.53904       -0.09612
H          8.58672       -3.38533       -0.22408
H          8.39898       -3.23301       -1.96829
H          8.29696       -5.74756       -2.17242
H          8.48297       -5.89282       -0.42664
H         10.72085       -4.70840       -0.58947
H         10.53662       -4.63456       -2.33948
H         10.43321       -7.17031       -2.41019
H         10.66690       -7.21077       -0.66477
H         12.88949       -6.00281       -0.97390
H         12.65435       -6.07360       -2.71846
H         12.54507       -8.61749       -2.55521
H         12.87693       -8.49086       -0.83010
H         15.07494       -7.32130       -1.37979
H         14.73371       -7.54867       -3.09331
H         14.62080      -10.07150       -2.67598
H         15.10146       -9.77778       -1.00723
H         17.24210       -8.67581       -1.87621
H         16.74712       -9.09661       -3.51399
H         16.66517      -11.55736       -2.77397
H         17.33428      -11.06038       -1.22163
H         19.35529      -10.09882       -2.46570
H         18.67499      -10.71652       -3.96821
H         18.66178      -13.06267       -2.87526
H         19.56462      -12.37800       -1.53413
H         21.47469      -11.80268       -2.93840
H         20.57688      -12.10565       -4.42835
H         23.14481      -13.47421       -2.61151
H         23.22826      -16.87377       -3.99074
H         23.55047      -15.16232       -4.44494
H         19.40870      -15.00528       -5.83815
H         19.02909      -13.74714       -4.70519
H         19.92183      -17.02664       -5.16312
H         21.45859      -17.85674       -4.88554
H         20.67888      -16.85573       -8.86188
H         22.54829      -14.67180       -0.36988
H         20.83656      -14.44123       -0.84478
H         21.02722      -14.28724        1.37250
H         20.55316      -14.95257        3.59807
H         19.69468      -13.63190        4.41617
H         21.33587      -14.05708        4.91771
H         21.57778      -11.40527        4.50544
H         22.47574       -9.80048        2.85977
H         23.15086       -9.20596        0.87240
H         23.90547      -11.27251       -1.26649
H         24.86530      -10.89488        0.17847
H         24.57798       -9.64296       -1.04889
H         21.46359      -10.24422       -1.46407
H         22.20522       -8.63755       -1.32829
H         20.90870       -9.11899       -0.20907
