72

Br         1.22686       -0.97409       -0.49847
C          2.92614       -0.04784       -0.17354
C          3.30847       -0.09924        1.29940
C          4.57347        0.73554        1.56942
C          5.19785        0.73884        2.98711
C          5.95545       -0.55189        3.36645
C          5.06423       -1.65954        3.93452
C          4.20561       -1.13813        5.07212
N          3.37950        0.05783        4.62758
C          4.27726        1.21382        4.14144
C          3.42729        2.44960        3.81237
C          4.33627        3.61999        3.39054
O          5.50979        3.64693        3.77450
N          3.78948        4.59084        2.60899
C          2.36991        4.65256        2.23824
C          2.03511        4.05133        0.87045
C          4.68772        5.66762        2.14615
C          5.53779        5.27425        0.93619
C          2.39741        0.43494        5.72388
O          1.62173       -0.69821        5.94565
C          0.26453       -0.49182        6.26864
C         -0.08159        0.48073        7.20629
C         -1.42075        0.67178        7.57734
C         -1.79245        1.69371        8.61996
C         -2.38211       -0.15068        6.97748
C         -2.01262       -1.12545        6.05053
C         -0.68139       -1.33194        5.65949
C         -0.35485       -2.41382        4.63894
C          0.23298       -1.86307        3.32608
C          0.50748       -3.55060        5.21891
H          2.77702        0.97719       -0.53175
H          3.66542       -0.54751       -0.80917
H          3.44608       -1.15223        1.58483
H          2.44743        0.27969        1.87860
H          4.37066        1.77814        1.27718
H          5.36863        0.40021        0.88483
H          5.95385        1.53625        2.95428
H          6.71890       -0.29687        4.11917
H          6.50472       -0.91888        2.48860
H          5.67511       -2.48385        4.32965
H          4.42114       -2.10708        3.16153
H          4.81459       -0.77990        5.91569
H          3.49515       -1.88488        5.44074
H          2.79598       -0.25388        3.83381
H          4.91898        1.44581        5.00456
H          2.88132        2.79320        4.70376
H          2.67812        2.21605        3.04453
H          2.08299        5.71398        2.25765
H          1.77221        4.17316        3.02492
H          2.57242        4.56450        0.06316
H          0.95900        4.14315        0.67052
H          2.29609        2.98448        0.82363
H          5.33902        5.93942        2.98727
H          4.05472        6.53424        1.91296
H          6.19330        4.42765        1.17769
H          6.17640        6.11730        0.64051
H          4.91779        5.00392        0.07143
H          1.78382        1.27611        5.37794
H          3.00784        0.73239        6.59436
H          0.69667        1.07766        7.68729
H         -1.17112        2.59629        8.54536
H         -1.65353        1.28498        9.63290
H         -2.84384        1.99295        8.52985
H         -3.43393       -0.03222        7.24256
H         -2.78471       -1.75284        5.60048
H         -1.32855       -2.85807        4.37600
H          1.27747       -1.53866        3.45570
H         -0.34605       -1.01223        2.94300
H          0.24334       -2.63843        2.54816
H          1.52151       -3.20664        5.46647
H          0.59736       -4.37089        4.49312
H          0.06161       -3.95742        6.13579
