94

C         -0.11447       -0.47406        0.04592
C          1.34047       -0.80298        0.39086
C          2.05047       -1.61215       -0.69990
C          3.50225       -1.96981       -0.36590
C          4.20176       -2.75593       -1.47861
C          5.64223       -3.16172       -1.15179
C          6.34243       -3.87381       -2.31302
C          7.75905       -4.35998       -1.99123
C          8.48344       -4.93207       -3.21344
C          9.87834       -5.48557       -2.90688
C         10.66415       -5.85478       -4.16872
C         12.07998       -6.35763       -3.87422
C         12.86913       -6.70103       -5.14480
C         14.31506       -7.09348       -4.84352
O         15.04410       -7.63877       -5.95014
C         15.15638       -6.74071       -7.01458
N         15.52535       -5.40726       -6.50110
C         15.59085       -5.09838       -5.19147
N         16.18283       -3.92262       -4.83802
C         15.62798       -2.95727       -3.87199
C         14.22820       -2.48276       -4.29581
C         13.62224       -1.36088       -3.44012
C         12.61014       -1.77204       -2.30212
C         13.05949       -2.70655       -1.11227
C         14.19535       -2.29732       -0.09411
C         14.09586       -0.98145        0.77583
C         12.86278       -0.80906        1.73954
F         12.70749       -1.89789        2.51236
F         13.08659        0.25685        2.52158
F         11.73393       -0.60260        1.03953
F         15.21201       -0.98606        1.54897
F         14.14470        0.09133       -0.05053
F         14.31746       -3.35097        0.74991
F         15.36226       -2.19379       -0.80016
F         11.94829       -2.99099       -0.39801
F         13.50140       -3.88155       -1.68109
F         12.08250       -0.64473       -1.77866
F         11.60835       -2.46711       -2.92705
F         14.60022       -0.57145       -2.89775
F         12.87570       -0.56049       -4.26598
N         15.09243       -5.95648       -4.28829
C         15.65281       -6.11071       -2.92562
C         17.05431       -6.74813       -2.91655
C         17.55289       -6.88390       -1.49659
C         17.45033       -8.10521       -0.81685
C         17.87435       -8.21788        0.50944
C         18.40069       -7.10692        1.17309
C         18.50656       -5.88377        0.50471
C         18.08511       -5.77454       -0.82157
H         -0.59990        0.10162        0.84585
H         -0.70466       -1.38966       -0.10907
H         -0.18105        0.12009       -0.87786
H          1.37721       -1.36312        1.34067
H          1.89843        0.13180        0.57052
H          2.02345       -1.04554       -1.64753
H          1.48288       -2.54014       -0.89014
H          3.52839       -2.55519        0.57030
H          4.07003       -1.04522       -0.15920
H          4.19544       -2.15445       -2.40483
H          3.61494       -3.66282       -1.70755
H          5.64678       -3.81362       -0.26035
H          6.22290       -2.26450       -0.87251
H          6.38060       -3.19216       -3.18141
H          5.73062       -4.73477       -2.63558
H          7.71425       -5.12219       -1.19392
H          8.35207       -3.52431       -1.57893
H          8.56891       -4.13992       -3.97880
H          7.86753       -5.72609       -3.67080
H          9.79058       -6.37035       -2.25325
H         10.44893       -4.73853       -2.33028
H         10.72649       -4.96763       -4.82420
H         10.11125       -6.61702       -4.74362
H         12.03194       -7.24617       -3.22178
H         12.61623       -5.58538       -3.29984
H         12.83953       -5.84101       -5.83464
H         12.40101       -7.54816       -5.66982
H         14.34476       -7.88718       -4.08672
H         14.22065       -6.64001       -7.59473
H         15.95290       -7.12213       -7.66873
H         15.60694       -4.65213       -7.17526
H         16.74496       -3.50708       -5.57563
H         16.32856       -2.11554       -3.84956
H         15.62808       -3.38407       -2.86618
H         13.52055       -3.32257       -4.32714
H         14.28334       -2.06510       -5.31171
H         14.93955       -6.73180       -2.36967
H         15.67027       -5.14479       -2.41243
H         17.73903       -6.11683       -3.50403
H         17.01613       -7.73148       -3.40784
H         17.04837       -8.97974       -1.33353
H         17.79866       -9.17673        1.02291
H         18.73524       -7.19549        2.20688
H         18.92653       -5.01622        1.01441
H         18.18674       -4.81852       -1.34235
