42

C          4.01761        1.39335       -2.06698
C          3.59781        0.63355       -0.82743
O          4.28320       -0.64555       -0.81959
C          3.96664       -1.39069        0.32155
N          4.71945       -2.65574        0.25355
N          4.05776       -3.82615        0.47339
C          4.99019       -4.74245        0.44670
N          6.23092       -4.18462        0.20782
C          6.03661       -2.84064        0.08933
C          7.07958       -1.81772       -0.16724
C          7.37024       -1.03853        1.15031
O          6.61978       -1.21101        2.11594
N          8.42540       -0.19237        1.14483
C          9.31891        0.02836       -0.00071
C         10.59159       -0.81961        0.04774
C          8.69242        0.58323        2.37383
C          7.95025        1.91866        2.39510
C          7.48563       -4.87153        0.15083
C          7.61209       -6.09401       -0.36117
H          3.49501        2.35833       -2.09966
H          3.76152        0.83535       -2.97669
H          5.09751        1.59261       -2.06519
H          2.50860        0.45157       -0.82056
H          3.85893        1.18659        0.09279
H          2.90609       -1.69048        0.36789
H          4.26426       -0.88038        1.25552
H          4.82764       -5.80210        0.61077
H          6.69163       -1.11760       -0.92200
H          7.97385       -2.29850       -0.58363
H          9.57815        1.09709       -0.00344
H          8.76923       -0.14629       -0.93513
H         11.15763       -0.63778        0.97061
H         11.24301       -0.57202       -0.80088
H         10.36507       -1.89433       -0.00120
H          9.77924        0.73542        2.43081
H          8.39068       -0.03571        3.22741
H          8.22260        2.55006        1.53793
H          8.20228        2.47079        3.31006
H          6.86452        1.75845        2.38433
H          8.30966       -4.31923        0.60052
H          6.78325       -6.63353       -0.81988
H          8.57974       -6.59068       -0.33082
