79

O          0.96193        1.28221        0.72455
C          2.23651        1.38770        0.12394
C          2.53756        2.86548       -0.07720
O          3.78203        2.94648       -0.79554
C          4.45226        4.16475       -0.72505
O          5.83187        3.86165       -0.50213
C          6.75343        4.55486       -1.31218
C          8.12709        3.88632       -1.16055
C          9.22797        4.81731       -1.71627
N          9.63342        4.14945       -2.96699
C          9.17695        2.94164       -3.11249
C          8.33245        2.53716       -1.95025
C          7.10352        1.65791       -2.28079
C          6.69301        0.76644       -1.10537
C          5.49471       -0.12656       -1.43341
C          5.08609       -1.00900       -0.24972
C          3.85656       -1.88002       -0.53406
C          3.32996       -2.53043        0.74128
O          2.17032       -3.36151        0.47791
C          0.95596       -2.75918        0.56692
O          0.80174       -1.57859        0.84729
C         -0.12540       -3.73177        0.28993
C         -1.41195       -3.36806        0.33690
C          9.53805        2.10609       -4.30070
O          9.72271        0.77002       -3.87071
C         10.54437       -0.01754       -4.70973
C         11.91225        0.26768       -4.74028
C         12.79450       -0.50896       -5.49872
C         14.27311       -0.22224       -5.52563
C         12.25017       -1.58399       -6.21806
C         10.88856       -1.86645       -6.16231
C          9.98443       -1.09695       -5.40887
C          8.51772       -1.49984       -5.36799
C          8.09788       -2.01950       -3.97945
C          7.55935       -0.41797       -5.89733
H          0.77746        0.33041        0.84560
H          2.27216        0.88374       -0.86104
H          3.02957        0.94545        0.75631
H          2.62413        3.37925        0.89609
H          1.72311        3.33940       -0.65151
H          4.07317        4.77842        0.11370
H          4.35596        4.73059       -1.67488
H          6.85407        5.61094       -0.98981
H          6.42429        4.57107       -2.37235
H          8.28210        3.71164       -0.08906
H         10.11174        4.89367       -1.06565
H          8.87589        5.83464       -1.93681
H         10.29308        4.57590       -3.61996
H          9.01870        1.88813       -1.36386
H          7.35507        1.01785       -3.13702
H          6.26126        2.29203       -2.59238
H          6.44639        1.39499       -0.23666
H          7.55651        0.13900       -0.81993
H          5.72538       -0.75850       -2.30782
H          4.64449        0.51212       -1.72062
H          4.87867       -0.35821        0.61681
H          5.93442       -1.64894        0.04831
H          4.09952       -2.66154       -1.27110
H          3.05771       -1.26441       -0.97373
H          3.05847       -1.76987        1.48686
H          4.06721       -3.21858        1.17630
H          0.18350       -4.75052        0.05363
H         -1.69126       -2.34167        0.58002
H         -2.21141       -4.08121        0.13880
H         10.43765        2.50706       -4.80030
H          8.69943        2.18335       -5.02865
H         12.30012        1.09003       -4.13342
H         14.53201        0.64175       -4.90083
H         14.61794       -0.01580       -6.54907
H         14.84854       -1.08541       -5.16120
H         12.90549       -2.21627       -6.81963
H         10.49784       -2.71956       -6.72062
H          8.43653       -2.35036       -6.06408
H          8.16883       -1.23435       -3.21458
H          8.73897       -2.85286       -3.66320
H          7.05996       -2.38074       -4.00304
H          7.45117        0.41887       -5.19290
H          6.55513       -0.83838       -6.04498
H          7.90109       -0.01715       -6.86150
