74

C          1.19948        0.59115       -0.17400
C          2.64217        0.83694       -0.62320
C          3.22703       -0.31586       -1.44681
C          4.66003       -0.06463       -1.92684
C          5.26603       -1.23968       -2.70122
C          6.68038       -0.96774       -3.22415
C          7.33559       -2.18788       -3.87999
C          8.73680       -1.90818       -4.43300
C          9.43889       -3.15996       -4.97175
C         10.81745       -2.86226       -5.57583
C         11.56495       -4.12654       -5.95903
O         12.83608       -3.75647       -6.53384
C         13.66208       -4.85703       -6.80038
C         14.96188       -4.35525       -7.37263
C         15.14878       -3.00821       -7.72910
C         16.37053       -2.61172       -8.26932
C         16.71020       -1.20945       -8.69725
C         15.56095       -0.20185       -8.68992
C         16.01951        1.19011       -9.14055
N         14.90850        2.13556       -9.05308
C         17.33648       -3.62011       -8.39492
N         17.07400       -4.87847       -8.01324
N         15.91352       -5.28323       -7.51311
C         18.13231       -5.92020       -8.07195
C         19.18414       -5.80692       -6.94812
C         18.58724       -5.86531       -5.52294
C         18.12551       -4.52526       -4.93624
C         20.20702       -6.92996       -7.18124
H          0.81318        1.43020        0.42137
H          1.12250       -0.31642        0.44345
H          0.52923        0.45989       -1.03687
H          3.27978        1.00915        0.26074
H          2.69087        1.76719       -1.21464
H          2.57779       -0.50674       -2.31967
H          3.20023       -1.24134       -0.84442
H          5.30144        0.16380       -1.05698
H          4.67868        0.84081       -2.55933
H          4.60766       -1.50106       -3.54827
H          5.28417       -2.13106       -2.04924
H          7.31715       -0.62117       -2.39098
H          6.64909       -0.13280       -3.94605
H          6.68944       -2.56166       -4.69344
H          7.39296       -3.00597       -3.14028
H          9.36047       -1.46073       -3.63897
H          8.67221       -1.14807       -5.23093
H          8.80022       -3.64594       -5.72902
H          9.54648       -3.88992       -4.15050
H         11.42897       -2.29729       -4.85362
H         10.70822       -2.22369       -6.46705
H         10.99664       -4.72617       -6.69471
H         11.74225       -4.76264       -5.07112
H         13.20521       -5.55901       -7.53051
H         13.88145       -5.45023       -5.88944
H         14.32483       -2.31377       -7.57286
H         17.16503       -1.26197       -9.70226
H         17.52323       -0.85313       -8.03779
H         15.12538       -0.10554       -7.68329
H         14.75172       -0.55122       -9.35407
H         16.47941        1.11357      -10.14806
H         16.81336        1.54271       -8.46261
H         14.23967        1.99121       -9.81053
H         15.24007        3.09581       -9.13682
H         18.33523       -3.43921       -8.79195
H         18.60942       -5.83326       -9.05765
H         17.59707       -6.87529       -8.01695
H         19.70604       -4.83993       -7.06905
H         19.36394       -6.27559       -4.86075
H         17.76403       -6.59848       -5.50033
H         18.94630       -3.79323       -4.92938
H         17.79713       -4.65499       -3.89691
H         17.28227       -4.07378       -5.47676
H         19.75155       -7.91944       -7.02757
H         21.03803       -6.83322       -6.47142
H         20.62846       -6.90441       -8.19608
