82

C          1.16567        1.02407       -1.24292
C          2.55317        0.56380       -0.78977
C          3.33080       -0.17910       -1.88167
C          4.71120       -0.66831       -1.43302
C          5.48266       -1.40798       -2.53055
C          6.84387       -1.94366       -2.07512
C          7.59723       -2.69412       -3.17779
C          8.92779       -3.29953       -2.71690
C          9.64835       -4.05907       -3.83734
C         10.92130       -4.74504       -3.37139
O         11.48391       -5.45522       -4.48938
C         12.64802       -6.19988       -4.15321
C         13.04896       -7.05357       -5.33144
C         13.27035       -8.40523       -5.18087
C         13.65610       -9.22802       -6.26518
C         13.83803       -8.74130       -7.54982
C         13.62704       -7.34081       -7.75209
C         13.22717       -6.50647       -6.64308
C         13.01233       -5.14631       -6.89807
N         13.18171       -4.64619       -8.12846
C         13.56671       -5.38348       -9.22541
C         13.79114       -6.72586       -9.02186
C         13.67708       -4.67323      -10.54442
C         14.34819       -3.28845      -10.48962
C         14.50512       -2.65917      -11.88760
C         15.11294       -1.27656      -11.82289
C         16.50353       -1.10850      -11.74391
C         17.06416        0.16637      -11.64288
C         16.23939        1.29445      -11.62053
C         14.85343        1.13992      -11.70358
C         14.29579       -0.13709      -11.80301
C         14.22690       -9.63389       -8.70801
C         14.33575      -11.12888       -8.40166
C         14.69065      -11.94567       -9.66100
C         14.77000      -13.37345       -9.38842
C         14.81879      -14.55388       -9.13019
H          0.63690        1.56026       -0.44292
H          0.53889        0.16957       -1.53936
H          1.23076        1.70033       -2.10849
H          2.45492       -0.08969        0.09369
H          3.14100        1.43554       -0.45542
H          3.44243        0.48002       -2.76112
H          2.73469       -1.04230       -2.22784
H          4.59478       -1.33313       -0.55900
H          5.30874        0.19051       -1.08008
H          5.62318       -0.73548       -3.39538
H          4.86960       -2.24887       -2.90056
H          6.69867       -2.61584       -1.21128
H          7.46519       -1.10865       -1.70678
H          7.77916       -2.01170       -4.02676
H          6.95385       -3.50041       -3.57167
H          8.74007       -3.98346       -1.87128
H          9.58178       -2.50197       -2.32436
H          9.89295       -3.36691       -4.66065
H          8.97728       -4.82421       -4.25985
H         10.70654       -5.46247       -2.55687
H         11.65705       -4.01272       -2.98498
H         12.45829       -6.85406       -3.28301
H         13.47960       -5.52008       -3.86718
H         13.13676       -8.86281       -4.19930
H         13.80191      -10.29020       -6.07050
H         12.66908       -4.46134       -6.12481
H         13.02740       -3.64709       -8.26892
H         14.09872       -7.32170       -9.87920
H         12.66376       -4.57141      -10.97353
H         14.22865       -5.33071      -11.23138
H         15.33598       -3.36858      -10.00889
H         13.75750       -2.58500       -9.87514
H         13.51936       -2.60978      -12.37657
H         15.13285       -3.31848      -12.50836
H         17.15691       -1.98404      -11.77456
H         18.14764        0.28018      -11.59141
H         16.67587        2.29113      -11.54997
H         14.20424        2.01636      -11.70086
H         13.21152       -0.24909      -11.88249
H         15.19005       -9.28096       -9.11938
H         13.49157       -9.49359       -9.52018
H         13.38480      -11.50814       -7.99701
H         15.10477      -11.31486       -7.63644
H         15.65273      -11.59789      -10.07518
H         13.93582      -11.76743      -10.44644
H         14.86796      -15.60156       -8.91969
