64

N          1.95331        2.15349       -0.47281
C          3.39264        2.17182       -0.27005
C          3.73769        1.35561        1.00288
C          5.19941        1.18227        1.19414
N          5.87205        0.10851        0.83312
N          7.16524        0.40599        1.11318
C          7.32207        1.61855        1.62996
N          6.07538        2.13837        1.71400
C          5.74156        3.48816        2.14994
C          6.10492        4.52221        1.06582
O          6.83065        4.26895        0.12696
O          5.53097        5.68320        1.36282
C          5.83507        6.83034        0.48159
C          5.48073        8.09490        1.23675
C          5.73865        9.35326        0.39757
C          5.44183       10.64760        1.16515
C          5.67498       11.90865        0.33120
C          8.64365        2.20317        2.01022
O          9.56344        1.14543        1.84290
C         10.92675        1.48393        1.74866
C         11.49163        2.37569        2.66199
C         12.86013        2.66972        2.62164
C         13.48450        3.61360        3.61585
C         13.63249        2.03635        1.63733
C         13.05200        1.14462        0.73886
C         11.68227        0.83633        0.75887
C         11.11380       -0.14069       -0.26168
C         10.54523       -1.42321        0.37454
C         10.13111        0.52470       -1.24514
H          1.71020        2.37241       -1.43702
H          1.46732        2.82137        0.12506
H          3.84052        3.18425       -0.19847
H          3.87087        1.68105       -1.12967
H          3.29579        0.35621        0.90490
H          3.28282        1.82150        1.89138
H          7.92317       -0.25384        0.92891
H          6.28620        3.72474        3.07521
H          4.67217        3.53248        2.38220
H          5.23871        6.70127       -0.43357
H          6.89904        6.77735        0.21294
H          6.07513        8.13615        2.16369
H          4.42208        8.05541        1.53904
H          5.12322        9.32043       -0.51787
H          6.78911        9.36492        0.05885
H          6.07123       10.68012        2.07029
H          4.39880       10.62655        1.52273
H          6.71312       11.96856       -0.02694
H          5.47358       12.81495        0.91711
H          5.01900       11.93186       -0.55125
H          8.59590        2.57753        3.05214
H          8.86963        3.05838        1.34670
H         10.87191        2.83114        3.43735
H         12.73873        4.03313        4.30267
H         13.98589        4.44985        3.10765
H         14.24714        3.10071        4.21952
H         14.70292        2.23929        1.57800
H         13.67739        0.66425       -0.01647
H         11.97852       -0.46041       -0.86550
H          9.70102       -1.22148        1.05220
H         11.30646       -1.93428        0.97873
H         10.20306       -2.12173       -0.40157
H          9.22090        0.89273       -0.75137
H          9.82372       -0.18834       -2.02304
H         10.59831        1.38492       -1.74270
