109

C          0.70755        0.50403        1.16218
C          2.22871        0.48313        0.98882
C          2.72551        1.38424       -0.14769
C          4.24720        1.36975       -0.32518
C          4.74528        2.26337       -1.46604
C          6.26809        2.25251       -1.63553
C          6.76799        3.13257       -2.78614
C          8.29287        3.13927       -2.93677
C          8.79670        4.00990       -4.09283
C         10.32368        4.04257       -4.21570
C         10.83475        4.89891       -5.37947
C         12.36343        4.96540       -5.46422
C         12.88625        5.80380       -6.63608
C         14.41442        5.91664       -6.67013
C         14.95195        6.72140       -7.85921
C         16.47646        6.88206       -7.84263
C         17.03350        7.63274       -9.05816
C         18.54963        7.84747       -8.98668
C         19.12818        8.55015      -10.21941
C         20.64527        8.81494      -10.07277
C         21.25084        9.48885      -11.26604
N         21.65168        8.67583      -12.30588
C         22.19737        9.11014      -13.45077
C         22.39796       10.47598      -13.65631
C         22.00044       11.38978      -12.61413
C         21.41860       10.85047      -11.42752
C         21.05530       11.77295      -10.28563
O         21.85889       12.09901       -9.43753
O         19.77189       12.14887      -10.36675
C         19.29543       13.09463       -9.33995
C         19.61104       14.52529       -9.73247
C         22.21481       12.77143      -12.80757
C         22.79883       13.24931      -13.97342
C         23.17684       12.32886      -14.99567
C         22.98735       10.97628      -14.84970
C         22.99310       14.72428      -14.19023
C         21.77673       15.36801      -14.87561
O         20.66674       15.24036      -14.00912
C         19.45134       15.74622      -14.57331
C         18.32278       15.51528      -13.58120
C         16.95919       15.97161      -14.11046
C         15.80975       15.69483      -13.13350
C         14.44685       16.14648      -13.66394
H          0.38559       -0.15114        1.98362
H          0.19644        0.16585        0.24828
H          0.34485        1.51863        1.38543
H          2.56436       -0.55137        0.80323
H          2.71144        0.79082        1.93206
H          2.38877        2.42009        0.03598
H          2.24420        1.07574       -1.09285
H          4.58331        0.33274       -0.50248
H          4.72689        1.68318        0.61899
H          4.40540        3.29984       -1.29296
H          4.27056        1.94578       -2.41134
H          6.60983        1.21463       -1.79601
H          6.74121        2.58153       -0.69329
H          6.41270        4.16729       -2.63491
H          6.30854        2.79253       -3.73116
H          8.65048        2.10397       -3.07766
H          8.74886        3.48817       -1.99327
H          8.41989        5.04012       -3.96462
H          8.36054        3.64633       -5.04010
H         10.70338        3.01167       -4.32825
H         10.75473        4.41920       -3.27110
H         10.43099        5.92246       -5.28434
H         10.43119        4.50361       -6.32844
H         12.77010        3.94151       -5.54003
H         12.75993        5.37610       -4.51874
H         12.44790        6.81620       -6.58556
H         12.52854        5.36788       -7.58560
H         14.85534        4.90437       -6.68849
H         14.76375        6.37896       -5.72997
H         14.48059        7.71991       -7.86959
H         14.64393        6.23241       -8.80020
H         16.94858        5.88566       -7.78485
H         16.77507        7.40992       -6.91992
H         16.53094        8.61162       -9.14844
H         16.78176        7.07660       -9.97812
H         19.05283        6.87421       -8.85103
H         18.79072        8.43915       -8.08663
H         18.61615        9.51074      -10.38756
H         18.94239        7.93901      -11.11964
H         21.17418        7.86474       -9.88664
H         20.82852        9.43808       -9.18619
H         21.52503        7.67158      -12.18008
H         22.47214        8.35270      -14.18412
H         19.75200       12.81645       -8.38148
H         18.21623       12.90463       -9.30658
H         20.69146       14.71712       -9.71862
H         19.14092       15.20788       -9.01120
H         19.21640       14.75698      -10.72971
H         21.91927       13.47769      -12.03187
H         23.63396       12.71498      -15.90799
H         23.29004       10.28006      -15.63300
H         23.87739       14.90154      -14.81898
H         23.15776       15.23058      -13.22886
H         21.57428       14.87323      -15.84750
H         22.00103       16.43172      -15.08389
H         19.24366       15.22714      -15.53017
H         19.56418       16.82441      -14.79937
H         18.55927       16.04919      -12.64579
H         18.28870       14.44024      -13.33499
H         16.74783       15.46734      -15.06970
H         16.99237       17.05150      -14.33644
H         16.01933       16.19845      -12.17424
H         15.77942       14.61433      -12.90931
H         14.43229       17.22895      -13.85808
H         13.64372       15.92734      -12.94736
H         14.19740       15.63859      -14.60743
