84

C          1.74186        0.79254        0.37350
C          3.20661        0.35652        0.46229
C          3.65094       -0.51011       -0.72084
C          5.11429       -0.95811       -0.64998
C          5.54796       -1.80265       -1.85222
C          7.01144       -2.25323       -1.80493
C          7.43075       -3.06671       -3.03337
C          8.89656       -3.51223       -3.02056
C          9.29558       -4.29008       -4.27858
C         10.76083       -4.73729       -4.30346
C         11.13893       -5.44875       -5.60732
C         12.59756       -5.91620       -5.66369
C         12.95382       -6.53109       -7.02020
C         14.41318       -7.04138       -7.09373
C         14.72369       -7.55547       -8.46467
C         15.13312       -6.70400       -9.51311
C         15.34093       -7.22137      -10.78186
C         15.78762       -6.38195      -11.94728
O         15.74932       -7.16443      -13.11360
C         16.17550       -6.45021      -14.27965
C         15.11877       -8.59472      -10.94827
N         14.72329       -9.32991       -9.89815
N         14.52971       -8.86570       -8.66503
C         14.56586      -10.78560      -10.02817
C         15.94111      -11.46168      -10.22911
O         16.92977      -10.86197      -10.59449
O         15.81478      -12.75982       -9.97673
C         17.01178      -13.60665      -10.17327
C         17.85439      -13.67673       -8.91048
C         19.01411      -14.67022       -9.07205
C         19.91772      -14.74356       -7.83625
C         21.07159      -15.74156       -7.98605
C         21.96859      -15.81416       -6.74834
H          1.45387        1.41949        1.22851
H          1.06696       -0.07657        0.35704
H          1.55304        1.37271       -0.54242
H          3.37134       -0.19765        1.40199
H          3.85397        1.24813        0.52141
H          3.48618        0.04753       -1.66029
H          3.00001       -1.40061       -0.78379
H          5.27843       -1.53053        0.28015
H          5.76528       -0.06885       -0.57495
H          5.37609       -1.22695       -2.77906
H          4.89608       -2.69105       -1.92702
H          7.18383       -2.84928       -0.89156
H          7.66395       -1.36693       -1.71411
H          7.24342       -2.46849       -3.94277
H          6.78107       -3.95545       -3.12084
H          9.08655       -4.13180       -2.12672
H          9.54724       -2.62604       -2.91778
H          9.09450       -3.66471       -5.16661
H          8.64373       -5.17538       -4.38208
H         10.95945       -5.40380       -3.44629
H         11.41559       -3.85944       -4.16368
H         10.94326       -4.76921       -6.45557
H         10.47348       -6.31671       -5.75667
H         12.78480       -6.65154       -4.86290
H         13.26877       -5.06414       -5.46041
H         12.79060       -5.78237       -7.81477
H         12.27592       -7.37106       -7.24466
H         14.56722       -7.84866       -6.36492
H         15.10745       -6.22403       -6.84634
H         15.27977       -5.64134       -9.30989
H         16.81140       -6.00439      -11.74012
H         15.12928       -5.49208      -12.02628
H         16.09076       -7.14824      -15.11864
H         17.22292       -6.12018      -14.18044
H         15.53129       -5.57432      -14.46490
H         15.25169       -9.09476      -11.90400
H         13.93071      -11.00564      -10.89757
H         14.07462      -11.14490       -9.11974
H         17.57573      -13.20429      -11.02500
H         16.58554      -14.58226      -10.43717
H         17.21502      -13.98041       -8.06646
H         18.25065      -12.67571       -8.67775
H         19.62079      -14.38799       -9.94983
H         18.60977      -15.67377       -9.28943
H         19.31098      -15.01667       -6.95519
H         20.32768      -13.74072       -7.62348
H         21.67719      -15.46531       -8.86567
H         20.66068      -16.74161       -8.20420
H         22.41539      -14.83525       -6.51975
H         22.79071      -16.52815       -6.88985
H         21.40144      -16.13404       -5.86181
