65

C          0.42206        0.47750       -0.28959
C          1.95267        0.49271       -0.28739
C          2.54966        1.19354        0.93861
C          4.08154        1.20346        0.95447
C          4.67652        1.88199        2.19337
C          6.20807        1.86111        2.21472
C          6.80134        2.50702        3.47159
C          8.33726        2.46303        3.50382
O          8.88305        1.14542        3.31504
C          8.64055        0.28536        4.42176
C          9.34076        0.79433        5.68191
N          8.79068        2.19533        5.95686
C          8.95703        3.09837        4.75934
C          9.32870        2.79463        7.24652
C          8.32486        3.72902        7.93103
C          7.22419        3.06885        8.73853
Br         5.95975        2.06459        7.56953
Br         9.36186        4.78831        9.23456
C         10.87107        0.74508        5.58262
C         11.37645       -0.41042        6.47065
O         10.88647       -0.57028        7.59079
N         12.35613       -1.17432        5.93786
C         13.00438       -2.28280        6.64178
C         14.52545       -2.12355        6.70506
C         15.21001       -3.32859        7.36188
C         16.73426       -3.19951        7.40990
H          0.02693       -0.03667       -1.17596
H          0.01165        1.49825       -0.28820
H          0.02572       -0.03879        0.59745
H          2.31876        0.98792       -1.20250
H          2.33189       -0.54231       -0.33258
H          2.17847        0.70052        1.85478
H          2.17602        2.23174        0.98295
H          4.45500        1.70857        0.04667
H          4.45375        0.16539        0.89619
H          4.29243        1.38150        3.10045
H          4.31880        2.92485        2.24944
H          6.60105        2.37928        1.32333
H          6.56290        0.82126        2.13582
H          6.36174        2.03322        4.36742
H          6.50229        3.56738        3.52722
H          8.71899        3.03372        2.64316
H          9.05157       -0.69685        4.15376
H          7.55898        0.15257        4.60605
H          9.03735        0.20577        6.56178
H          7.76832        2.05567        6.12208
H         10.03571        3.25342        4.62829
H          8.48533        4.06227        4.99058
H         10.24152        3.34498        6.99470
H          9.59761        1.95680        7.90613
H          7.91338        4.47403        7.23800
H          6.59702        3.80591        9.24580
H          7.60790        2.33291        9.45253
H         11.34547        1.65207        5.98637
H         11.18693        0.66546        4.53358
H         12.68278       -0.95350        5.00212
H         12.74068       -3.22576        6.13482
H         12.56178       -2.31380        7.64585
H         14.77019       -1.20091        7.25660
H         14.92467       -1.99218        5.68332
H         14.93490       -4.24442        6.81238
H         14.81637       -3.45752        8.38357
H         17.16066       -3.10527        6.40031
H         17.19171       -4.07921        7.88121
H         17.04475       -2.31544        7.98571
