69

C          6.48330       -9.49929        4.92595
O          6.42230       -9.78242        3.53517
C          6.50971       -8.61366        2.74007
C          6.40406       -9.04127        1.28242
O          6.64066       -7.88624        0.48303
C          6.51914       -8.13155       -0.90490
C          6.88616       -6.86838       -1.65314
O          8.29805       -6.65284       -1.52985
C          8.73912       -5.38796       -1.99696
C         10.22086       -5.29245       -1.65076
N         10.87659       -6.50200       -2.15273
C         12.20282       -6.73409       -2.08233
N         12.68214       -7.93855       -2.45600
C         14.11722       -8.27599       -2.51079
C         14.33348       -9.29081       -3.64071
C         15.75525       -9.85961       -3.72276
C         15.88560      -10.94782       -4.79196
C         14.91889       -6.97985       -2.67707
C         14.49358       -5.93813       -1.64204
N         13.03679       -5.78436       -1.67354
C         15.15155       -4.56333       -1.87480
C         14.62261       -3.48674       -0.92051
O         13.38622       -3.39957       -0.73321
N         15.49270       -2.65289       -0.30305
C         16.94683       -2.63211       -0.54738
C         17.36409       -1.96761       -1.86216
C         14.95037       -1.65307        0.63890
C         14.88804       -0.23356        0.07456
H          6.41681      -10.45895        5.45168
H          5.64511       -8.85302        5.24544
H          7.43385       -9.00302        5.19679
H          7.47385       -8.09151        2.90306
H          5.69824       -7.90139        2.98706
H          5.40282       -9.46502        1.07797
H          7.15420       -9.82697        1.06938
H          5.48163       -8.41669       -1.17137
H          7.18282       -8.96252       -1.21987
H          6.34036       -6.01115       -1.22002
H          6.60317       -6.96422       -2.71803
H          8.19595       -4.56391       -1.50076
H          8.58498       -5.29415       -3.09002
H         10.34187       -5.20854       -0.55752
H         10.65567       -4.39898       -2.12211
H         10.25124       -7.30754       -2.17204
H         12.03040       -8.60196       -2.86089
H         14.39918       -8.74957       -1.55275
H         14.05790       -8.82031       -4.60022
H         13.62861      -10.12755       -3.48764
H         16.04176      -10.26878       -2.73957
H         16.47046       -9.05062       -3.94121
H         15.22101      -11.79800       -4.58135
H         16.91193      -11.33322       -4.83962
H         15.62872      -10.56277       -5.78930
H         14.76209       -6.57931       -3.69245
H         15.98896       -7.19466       -2.56408
H         14.78385       -6.29164       -0.63507
H         12.73993       -4.85125       -1.30897
H         14.93054       -4.22541       -2.90055
H         16.23720       -4.69312       -1.80544
H         17.34440       -3.65569       -0.48339
H         17.38698       -2.08918        0.29952
H         16.98731       -2.51295       -2.73771
H         18.46003       -1.94005       -1.93230
H         16.99333       -0.93737       -1.92408
H         15.58183       -1.68547        1.53945
H         13.94746       -1.99469        0.91450
H         15.88441        0.17439       -0.14080
H         14.41355        0.43026        0.80950
H         14.29063       -0.20282       -0.84606
