58

C          0.92109       -0.10537        0.20536
C          2.37588        0.01286       -0.25686
C          3.01270        1.36590        0.08273
C          4.45718        1.49884       -0.41146
C          5.11205        2.83147       -0.02865
C          6.52197        2.98734       -0.61562
C          7.18200        4.28756       -0.15175
S          8.75717        4.47487       -1.07942
C          9.37473        5.90885       -0.36549
N          8.94289        6.64162        0.64068
N          9.83437        7.69447        0.77490
C         10.73025        7.52022       -0.14400
O         10.54084        6.42771       -0.92324
N         11.83900        8.34630       -0.41100
C         12.12674        9.34507        0.45595
C         13.19021       10.21964        0.20495
C         13.46921       11.27568        1.10638
C         14.50740       12.15239        0.82685
C         15.28561       11.98177       -0.35550
C         15.03155       10.95052       -1.23200
C         13.98589       10.03038       -0.98303
C         13.65812        8.94808       -1.85574
C         12.58952        8.13499       -1.55485
C         14.41676        8.66911       -3.10211
C         13.78368        8.74215       -4.35013
C         14.53070        8.45816       -5.49673
N         15.82340        8.10722       -5.47172
C         16.41906        8.03262       -4.27276
C         15.77079        8.30560       -3.06603
N         14.74232       13.28826        1.62798
O         14.24023       13.06718        2.93406
O         16.13921       13.54492        1.69339
H          0.50153       -1.09045       -0.04000
H          0.28602        0.65473       -0.27415
H          0.83423        0.03062        1.29391
H          2.43085       -0.15056       -1.34673
H          2.97548       -0.79310        0.19961
H          2.98169        1.51930        1.17614
H          2.40244        2.17679       -0.35342
H          4.47768        1.38418       -1.50956
H          5.06211        0.66782       -0.00849
H          5.15679        2.91718        1.07062
H          4.48067        3.66708       -0.37666
H          6.46015        2.96903       -1.71676
H          7.14830        2.12976       -0.32025
H          7.41472        4.27661        0.92061
H          6.56296        5.16701       -0.37377
H         11.47638        9.41607        1.32646
H         12.87328       11.39978        2.00741
H         16.09224       12.68393       -0.55522
H         15.63679       10.84562       -2.13109
H         12.28627        7.29758       -2.17529
H         12.73568        9.03422       -4.43214
H         14.06515        8.51734       -6.48414
H         17.47100        7.73503       -4.27523
H         16.30483        8.21348       -2.11932
H         13.86505       13.93122        3.18424
H         16.19310       14.51793        1.67657
