54

C          0.59872       -0.22757        1.40808
C          2.04483       -0.33760        0.92206
C          3.02156       -0.44194        2.10215
N          4.43874       -0.35238        1.65083
C          4.98390       -1.52808        1.18065
C          6.22750       -1.56204        0.62205
C          6.97295       -0.36724        0.48419
C          6.39999        0.85558        0.97787
C          5.11864        0.82086        1.60011
C          4.49751        2.05249        2.19481
C          3.58230        2.79212        1.19875
O          3.93629        3.10501        0.08308
O          2.38111        3.01953        1.75264
C          1.40630        3.75800        0.92944
C          1.52748        5.25192        1.15344
C          7.12230        2.06586        0.79972
C          8.35636        2.08600        0.17210
C          8.91432        0.85854       -0.28346
C          8.24467       -0.33611       -0.13430
C          9.11358        3.37416       -0.01371
C         10.28670        3.51830        0.97853
C         11.01594        4.85589        0.80205
C         12.21472        4.96404        1.74831
S         12.97135        6.60254        1.59298
O         13.53555        6.74549        0.27114
O         12.07396        7.59325        2.14139
Cl        14.55883        6.39630        2.92982
H         -0.08829       -0.17288        0.55457
H          0.45220        0.67515        2.01767
H          0.30452       -1.09611        2.01396
H          2.30647        0.53847        0.30993
H          2.16764       -1.21640        0.27022
H          2.91631       -1.40260        2.62297
H          2.82768        0.34673        2.83457
H          4.35401       -2.40772        1.28754
H          6.62986       -2.51180        0.27112
H          5.29422        2.75336        2.47135
H          3.94920        1.82857        3.11518
H          0.43962        3.36727        1.26950
H          1.57070        3.48229       -0.12008
H          1.40324        5.50680        2.21372
H          0.73900        5.76551        0.58620
H          2.49493        5.63201        0.80156
H          6.68890        3.01364        1.11433
H          9.88844        0.87132       -0.77622
H          8.67845       -1.26628       -0.50315
H          8.42597        4.22480        0.10287
H          9.50344        3.42207       -1.04307
H         10.99304        2.68333        0.83987
H          9.90328        3.43172        2.00816
H         10.31835        5.68517        0.99593
H         11.36024        4.96314       -0.23769
H         13.00858        4.24280        1.51317
H         11.93321        4.87043        2.80580
