65

C         -6.30404        2.66927        8.78508
C         -5.21916        3.71216        9.05310
N         -3.89993        3.34093        8.49421
C         -3.54024        3.70051        7.25268
S         -4.57499        4.56796        6.22899
S         -1.87332        3.20967        6.80620
C         -1.60929        4.05919        5.21508
C         -1.07838        3.19212        4.06929
C         -1.84106        1.91340        3.62717
C         -3.30190        1.66541        4.00814
C         -3.88422        0.40461        3.37474
O         -5.28027        0.52000        3.63090
C         -5.67160        1.85906        3.45311
N         -4.36602        2.70233        3.61359
C         -4.01790        3.51657        2.39892
C         -4.99543        4.66072        2.13657
C         -4.47821        5.70905        1.13456
C         -4.26567        5.25011       -0.32149
S         -2.56879        4.71784       -0.65945
O         -1.67205        5.82792       -0.41997
O         -2.33412        3.43275       -0.03660
O         -2.64310        4.43028       -2.24877
C         -6.74493        2.16818        4.48460
C         -7.55640        3.45867        4.27537
C         -8.62172        3.59345        5.30824
C         -8.73765        4.56628        6.21939
F         -7.89648        5.59499        6.30968
F         -9.69425        4.63076        7.13109
F         -9.55212        2.60199        5.32070
C         -3.01122        2.59420        9.40920
C         -2.17667        3.49959       10.31592
H         -7.22871        2.96339        9.29973
H         -6.01666        1.67499        9.15345
H         -6.52368        2.59782        7.71255
H         -5.06737        3.84287       10.13355
H         -5.50119        4.68405        8.63114
H         -0.89137        4.86559        5.41518
H         -2.57706        4.53822        4.99008
H         -0.04452        2.89086        4.28967
H         -0.99020        3.87160        3.20635
H         -1.32904        1.04193        4.06382
H         -1.72088        1.80509        2.53903
H         -3.40228        1.58968        5.09924
H         -3.53031       -0.51520        3.85404
H         -3.66875        0.35247        2.29080
H         -6.00522        2.04371        2.41549
H         -4.47349        3.35935        4.44419
H         -3.93477        2.83283        1.54660
H         -3.01890        3.92554        2.57929
H         -5.18494        5.19035        3.08312
H         -5.96635        4.27442        1.78930
H         -3.55288        6.17256        1.51144
H         -5.21984        6.51927        1.10722
H         -4.43319        6.08334       -1.01657
H         -4.92042        4.41851       -0.61910
H         -2.21603        5.17546       -2.71502
H         -6.27994        2.17176        5.48185
H         -7.42393        1.30373        4.45810
H         -8.02365        3.45496        3.27511
H         -6.91956        4.35053        4.33677
H         -2.36909        1.93113        8.81288
H         -3.66144        1.93852       10.00591
H         -1.50318        4.13810        9.73119
H         -1.56655        2.88160       10.98757
H         -2.81309        4.14290       10.93768
