66

C          2.77490        2.07198        1.29323
C          3.75524        0.98148        0.85754
C          4.51131        1.33183       -0.42824
C          5.49409        0.24075       -0.86509
C          6.21975        0.57386       -2.17587
C          7.17638       -0.53876       -2.56769
O          7.73188       -0.31738       -3.91815
C          8.90632        0.30236       -4.00813
O          9.61342        0.70645       -3.11065
C          9.26531        0.46269       -5.50128
N         10.71449        0.66694       -5.64685
C         11.23942        1.89822       -5.61858
C         12.63206        2.06127       -5.73581
C         13.25191        3.42819       -5.75413
C         12.57195        4.38748       -6.74528
O         11.39893        4.30394       -7.06157
O         13.44355        5.30728       -7.15920
C         12.94218        6.37468       -8.04506
C         12.74338        7.66227       -7.26336
C         12.29082        8.81030       -8.17639
C         12.11814       10.12859       -7.41900
C         13.37653        0.89649       -5.84403
C         12.73724       -0.36420       -5.81067
N         11.41027       -0.46687       -5.72232
C         13.53247       -1.64420       -5.84549
C         12.75018       -2.89574       -6.22307
O         12.33406       -2.75955       -7.56828
C         11.61075       -3.90551       -8.04189
C         11.24737       -3.68305       -9.49650
H          2.25393        1.79656        2.21957
H          2.01071        2.25082        0.52251
H          3.29327        3.02521        1.47343
H          3.21189        0.03312        0.70969
H          4.48208        0.79267        1.66512
H          5.05683        2.28080       -0.28549
H          3.78556        1.51572       -1.23960
H          4.94987       -0.71195       -0.98326
H          6.23425        0.07421       -0.06394
H          6.77576        1.51889       -2.06942
H          5.48250        0.71522       -2.98233
H          6.65907       -1.50187       -2.66284
H          8.01447       -0.63452       -1.86529
H          8.73690        1.33075       -5.91613
H          8.99626       -0.43456       -6.06695
H         10.54890        2.73341       -5.54058
H         14.32743        3.37020       -5.95831
H         13.14573        3.89464       -4.75883
H         12.01420        6.02553       -8.51490
H         13.72678        6.47847       -8.80541
H         13.68648        7.93226       -6.76253
H         11.99204        7.49844       -6.47384
H         11.34204        8.53596       -8.66549
H         13.02697        8.94445       -8.98594
H         11.36839       10.03478       -6.62013
H         11.78898       10.93100       -8.09172
H         13.06234       10.44806       -6.95517
H         14.46183        0.94102       -5.95467
H         13.97990       -1.78509       -4.84622
H         14.37414       -1.51050       -6.54238
H         11.88195       -3.03384       -5.55057
H         13.40951       -3.77593       -6.09984
H         10.70551       -4.05133       -7.42145
H         12.24101       -4.80750       -7.92587
H         10.60788       -2.79790       -9.61199
H         10.70215       -4.55332       -9.88447
H         12.14928       -3.54294      -10.10591
