53

C          1.75302        6.49619       -6.81121
O          2.49019        6.78883       -5.63069
C          3.77562        6.19892       -5.63755
C          4.43773        6.54715       -4.31203
O          5.74860        5.98200       -4.32754
C          6.44297        6.15045       -3.11371
C          7.78368        5.44930       -3.28481
O          8.48175        5.52097       -2.03072
C          9.71407        4.82980       -2.04186
C         10.45220        5.15993       -0.74809
N         10.86772        6.57400       -0.71592
N         12.08539        6.95097       -1.01787
N         12.11911        8.26417       -1.11213
C         10.87058        8.73822       -0.91010
N         10.06015        7.67529       -0.64039
C          8.62045        7.69807       -0.29585
O          7.90130        8.50901       -0.81266
O          8.39316        6.80494        0.63814
C          6.96991        6.64038        1.05117
C          6.61572        7.60722        2.15888
C         10.49442       10.15304       -1.03212
C         10.41761       10.57091       -2.58594
N          9.71656        9.46769       -3.26489
N          9.83466       11.90098       -2.57203
N         11.68591       10.69612       -3.24810
H          0.78265        6.99622       -6.71342
H          1.59083        5.40896       -6.92596
H          2.26719        6.87518       -7.71310
H          4.38943        6.58200       -6.47679
H          3.71133        5.09813       -5.74541
H          3.84713        6.13324       -3.47327
H          4.48672        7.64534       -4.18738
H          5.88969        5.69248       -2.26781
H          6.59238        7.22284       -2.87616
H          8.37897        5.93471       -4.07802
H          7.61623        4.39588       -3.56800
H         10.32986        5.11732       -2.91487
H          9.56766        3.73321       -2.07367
H         11.39491        4.60491       -0.67829
H          9.83602        4.96099        0.13500
H          6.93789        5.59518        1.37677
H          6.35572        6.76992        0.15229
H          7.28176        7.48754        3.02251
H          5.59041        7.39446        2.49181
H          6.64603        8.64850        1.81541
H         11.25981       10.77766       -0.55918
H          9.52769       10.34681       -0.55421
H          8.74777        9.40358       -2.94728
H          9.70870        9.65990       -4.26878
H          8.86614       11.89890       -2.25502
H          9.87830       12.31067       -3.50587
H         12.20716        9.82230       -3.28171
H         12.25940       11.43398       -2.84367
