63

C          9.25928        3.77819       -5.49686
C          8.79098        3.37550       -4.09625
C          9.06684        4.44510       -3.03317
C          8.65051        4.02652       -1.61985
C          8.90687        5.09906       -0.55620
C          8.55221        4.64322        0.86279
C          8.79256        5.71926        1.92833
C          8.44451        5.28652        3.36124
C          9.32723        4.17331        3.92440
O         10.74314        4.48394        3.89829
C         11.13351        5.43583        4.84761
N         12.59186        5.31871        4.98370
C         13.40029        6.38873        4.85239
N         14.70037        6.29916        4.53959
C         15.40648        5.26954        3.76260
C         16.56706        5.89927        2.98508
C         17.64235        6.56085        3.85694
C         18.82169        7.10823        3.04117
C         19.87968        7.80263        3.90146
N         12.90574        7.63351        5.05817
C         13.08845        3.98697        5.38688
C         13.73226        3.92593        6.74470
C         13.80650        4.89958        7.65303
H          9.03997        2.99536       -6.23556
H         10.34454        3.95921       -5.51801
H          8.76465        4.70096       -5.83486
H          9.28328        2.43376       -3.79919
H          7.71006        3.15619       -4.11640
H          8.54428        5.37752       -3.31015
H         10.14385        4.69155       -3.03706
H          9.18842        3.10269       -1.34238
H          7.57859        3.76192       -1.61717
H          8.33171        6.00784       -0.80502
H          9.97035        5.39710       -0.58665
H          9.13910        3.73846        1.09658
H          7.49283        4.33361        0.89450
H          8.19399        6.61059        1.68159
H          9.84720        6.04249        1.88829
H          7.40508        4.91974        3.40268
H          8.47001        6.16006        4.03477
H          9.24878        3.25838        3.32390
H          9.03371        3.92701        4.96111
H         10.65249        5.23783        5.82697
H         10.89527        6.46332        4.52679
H         15.27718        7.08389        4.83384
H         14.68955        4.81176        3.06809
H         15.78773        4.48893        4.44217
H         16.16638        6.62441        2.25770
H         17.02521        5.09243        2.39264
H         18.01179        5.83616        4.60297
H         17.21826        7.40271        4.43954
H         18.44010        7.81126        2.28240
H         19.28278        6.27855        2.48082
H         19.45567        8.65748        4.44951
H         20.70265        8.18398        3.28352
H         20.31291        7.11376        4.64092
H         12.10262        7.79536        5.65126
H         13.37421        8.44124        4.66656
H         13.76748        3.57831        4.62594
H         12.21099        3.32600        5.34710
H         14.16040        2.94474        6.97115
H         13.38894        5.89492        7.49050
H         14.28665        4.73129        8.61557
