136

C         20.01730        5.60219      -13.15845
C         19.61200        4.98294      -11.81830
C         20.08055        5.79469      -10.60571
C         19.69721        5.17169       -9.25956
C         20.16363        5.98721       -8.04956
C         19.81171        5.35013       -6.70130
C         20.27616        6.17284       -5.49542
C         19.95146        5.52866       -4.14378
C         20.40905        6.36269       -2.94294
C         20.09748        5.71902       -1.58780
C         20.54650        6.56527       -0.39232
C         20.26008        5.91958        0.96749
C         20.70582        6.78144        2.15306
C         20.44883        6.14091        3.52131
C         20.89219        7.02743        4.68946
C         20.66443        6.40387        6.07102
C         21.08732        7.33429        7.21223
C         20.88455        6.74083        8.61154
C         21.26973        7.74163        9.71227
C         21.05299        7.14594       11.09962
N         21.41826        8.03422       12.28271
C         20.64000        9.34665       12.49014
C         19.19367        9.33531       12.03027
C         21.59433       10.34845       11.84438
O         22.88819        9.88450       12.23643
C         22.91264        8.47876       12.30464
C         23.61284        8.02057       13.57174
C         23.69503        6.50133       13.76995
C         24.45380        6.13675       15.05333
C         24.46770        4.63871       15.37288
C         25.22478        4.32087       16.66768
C         25.19857        2.84046       17.06200
C         25.96004        2.55468       18.36112
C         25.90922        1.08956       18.80673
C         26.68308        0.82730       20.10313
C         26.61974       -0.62537       20.58592
C         27.40824       -0.86973       21.87682
C         27.34712       -2.31547       22.38089
C         28.14661       -2.54334       23.66793
C         28.09132       -3.98234       24.19082
C         28.90259       -4.19479       25.47303
C         28.85324       -5.62830       26.01145
C         29.66987       -5.82624       27.29266
C         29.62077       -7.25327       27.84721
C         30.43737       -7.44134       29.13078
C         30.37753       -8.86551       29.68864
H         19.66362        4.99922      -14.00625
H         21.11113        5.68656      -13.24457
H         19.60007        6.61392      -13.27381
H         20.01820        3.95950      -11.74763
H         18.51473        4.87397      -11.77911
H         19.66398        6.81586      -10.66841
H         21.17764        5.91557      -10.65133
H         20.11948        4.15301       -9.19700
H         18.60092        5.04539       -9.21401
H         19.72443        6.99929       -8.10077
H         21.25708        6.13163       -8.10795
H         20.25761        4.34107       -6.64831
H         18.71927        5.19916       -6.64163
H         19.81675        7.17618       -5.54061
H         21.36584        6.33861       -5.56623
H         20.41953        4.52957       -4.09415
H         18.86314        5.35446       -4.07359
H         19.93530        7.35926       -2.99052
H         21.49603        6.54351       -3.01804
H         20.58056        4.72729       -1.53551
H         19.01207        5.52922       -1.51401
H         20.05178        7.55162       -0.43857
H         21.62883        6.76842       -0.47644
H         20.76322        4.93793        1.01886
H         19.17940        5.70938        1.05339
H         20.19099        7.75741        2.10634
H         21.78280        7.00540        2.05477
H         20.97318        5.17080        3.57634
H         19.37387        5.91022        3.62345
H         20.35709        7.99202        4.63492
H         21.96311        7.27108        4.57465
H         21.22098        5.45341        6.14322
H         19.59817        6.14238        6.18666
H         20.52042        8.27890        7.13578
H         22.14925        7.60799        7.08566
H         21.48271        5.82003        8.71743
H         19.83018        6.44114        8.73798
H         20.66840        8.65294        9.58137
H         22.32099        8.03907        9.57505
H         21.66311        6.24064       11.23405
H         20.00302        6.85825       11.24857
H         21.27653        7.45161       13.11744
H         20.67968        9.50130       13.57877
H         19.08541        9.22940       10.94463
H         18.74088       10.29409       12.31584
H         18.61147        8.54768       12.52614
H         21.46629       11.35943       12.24931
H         21.48706       10.38592       10.74715
H         23.36232        8.03723       11.40005
H         23.12086        8.50265       14.43417
H         24.62529        8.45096       13.52835
H         24.18089        6.02996       12.89884
H         22.68119        6.05667       13.82986
H         24.00540        6.68280       15.90150
H         25.48927        6.50783       14.97018
H         24.91998        4.08270       14.53336
H         23.42905        4.27223       15.45771
H         24.79807        4.92024       17.49125
H         26.27249        4.65348       16.56604
H         25.62402        2.23232       16.24459
H         24.15048        2.51004       17.17177
H         25.55312        3.19145       19.16655
H         27.01354        2.86222       18.23930
H         26.30992        0.44644       18.00351
H         24.85618        0.78478       18.94064
H         26.29513        1.48992       20.89706
H         27.73897        1.11760       19.96035
H         27.00069       -1.29266       19.79274
H         25.56493       -0.91340       20.74131
H         27.03211       -0.19433       22.66568
H         28.46335       -0.58514       21.71715
H         27.72069       -2.99358       21.59334
H         26.29339       -2.60026       22.54866
H         27.77652       -1.85827       24.45128
H         29.20002       -2.25974       23.49560
H         28.45736       -4.67045       23.40836
H         27.03934       -4.26550       24.37234
H         28.53845       -3.50185       26.25226
H         29.95415       -3.91187       25.28855
H         29.21743       -6.32363       25.23450
H         27.80265       -5.91189       26.20014
H         29.30898       -5.12398       28.06506
H         30.72084       -5.54604       27.10070
H         29.98381       -7.95809       27.07803
H         28.57013       -7.53476       28.03990
H         30.07793       -6.73118       29.89495
H         31.48767       -7.16567       28.93515
H         29.34401       -9.15744       29.92857
H         30.97212       -8.96570       30.60726
H         30.76435       -9.59576       28.96187
