57

C         -0.02256       -0.60746       -1.95031
C          0.56727        0.53036       -1.11442
C          1.77703        1.18603       -1.78741
C          2.38509        2.35740       -1.00950
N          2.91912        1.98706        0.31548
C          2.36224        2.52377        1.43310
O          1.37390        3.27336        1.41528
C          3.03991        2.17734        2.77255
C          2.33043        2.90674        3.91904
N          2.51244        4.34997        3.81021
C          1.63963        5.08321        4.71662
C          2.01392        4.78961        6.16283
N          1.94634        3.26194        6.33341
C          2.74306        2.42841        5.33224
C          4.24705        2.40087        5.71220
C          4.56353        1.88673        7.14531
F          4.07868        2.78869        8.07395
F          3.92317        0.70281        7.35025
F          4.86571        1.51329        4.87223
F          4.85770        3.61091        5.57580
C          1.10156        5.44262        7.19791
C          1.50357        5.22819        8.66363
C          0.61111        6.00589        9.63961
C          0.99732        5.78463       11.10253
C          4.12207        1.15742        0.35392
H         -0.88354       -1.06975       -1.44940
H          0.72125       -1.39760       -2.13174
H         -0.36385       -0.24468       -2.93068
H          0.86098        0.14567       -0.12343
H         -0.20236        1.29677       -0.92716
H          1.48305        1.57886       -2.77466
H          2.54619        0.42128       -1.99345
H          1.62941        3.13204       -0.83136
H          3.20747        2.80915       -1.58792
H          4.10029        2.46383        2.73531
H          3.01204        1.08879        2.93402
H          1.24784        2.63855        3.84101
H          2.26934        4.59554        2.84589
H          0.56088        4.84441        4.56738
H          1.76004        6.16139        4.54455
H          3.06584        5.05009        6.33900
H          0.95581        2.99360        6.22485
H          2.22104        3.03138        7.30124
H          2.39770        1.39273        5.47147
H          5.64677        1.76639        7.29482
H          0.05826        5.11853        7.03214
H          1.11211        6.52194        6.97654
H          2.55415        5.53282        8.80559
H          1.45346        4.15661        8.93724
H         -0.44042        5.71439        9.48224
H          0.67093        7.07918        9.39562
H          0.90576        4.72575       11.38590
H          0.34934        6.36337       11.77307
H          2.03494        6.09447       11.29385
H          4.30563        0.76447       -0.65130
H          4.00847        0.29687        1.02760
H          5.01013        1.73370        0.65853
