65

C          5.47348       -0.51436        0.10449
C          5.87695       -1.60300        1.10163
C          4.71544       -2.06307        1.98880
C          5.14563       -3.15104        2.97904
N          4.04644       -3.59413        3.85535
C          3.22837       -4.59906        3.46485
S          3.40479       -5.45722        2.04235
S          1.92105       -4.93118        4.66978
C          0.98517       -6.29221        3.91877
C         -0.34555       -5.86294        3.28883
C         -0.16980       -4.96031        2.06406
C         -1.48104       -4.46943        1.44921
C         -1.23329       -3.60613        0.20819
N         -2.52263       -2.85022       -0.02848
C         -3.31133       -2.83108        1.41048
C         -2.31549       -3.52971        2.32873
N         -3.65946       -1.51336        1.74036
C         -3.33543       -3.39740       -1.16424
C         -4.56437       -2.54816       -1.56125
C         -4.17427       -1.25625       -2.30918
F         -3.23765       -0.54943       -1.59476
F         -3.62053       -1.54920       -3.51320
F         -5.22617       -0.45688       -2.50834
O         -5.45305       -3.32490       -2.32649
C          3.87348       -2.84632        5.11462
C          4.51739       -3.49008        6.35328
C          6.03890       -3.66307        6.29615
C          6.60866       -4.23558        7.59661
H          6.32779       -0.19717       -0.50815
H          5.08560        0.37756        0.61868
H          4.69008       -0.87177       -0.58063
H          6.69863       -1.23300        1.73766
H          6.28123       -2.47171        0.55697
H          3.90011       -2.45966        1.36286
H          4.30701       -1.19986        2.54189
H          5.94882       -2.77886        3.62927
H          5.51907       -4.03158        2.44045
H          0.81331       -7.00564        4.73546
H          1.66182       -6.75016        3.17719
H         -0.95981       -5.35841        4.05268
H         -0.89314       -6.77763        3.00344
H          0.41450       -5.49571        1.30079
H          0.44007       -4.08422        2.34506
H         -2.09952       -5.33974        1.16397
H         -0.96222       -4.17159       -0.69078
H         -0.44608       -2.86485        0.40462
H         -2.33229       -1.85723       -0.21834
H         -4.19026       -3.45668        1.20396
H         -2.85480       -4.04698        3.13164
H         -1.65784       -2.77966        2.80182
H         -3.16440       -1.10141        2.52430
H         -4.64308       -1.27023        1.72983
H         -3.69990       -4.39016       -0.87022
H         -2.66670       -3.51963       -2.02813
H         -5.12950       -2.23157       -0.67124
H         -5.10603       -3.43492       -3.22994
H          2.79673       -2.69828        5.28845
H          4.30224       -1.84782        4.94351
H          4.04233       -4.46482        6.54382
H          4.25221       -2.84976        7.21185
H          6.51477       -2.69039        6.08281
H          6.30502       -4.32983        5.46030
H          6.39288       -3.57820        8.45165
H          7.69826       -4.35589        7.53629
H          6.17730       -5.22221        7.81990
