42

C          6.05067       -3.84389        2.43621
C          6.30705       -2.86889        1.28225
C          5.09471       -2.77935        0.37158
O          5.31662       -1.77596       -0.69614
C          5.77280       -2.20365       -1.85554
O          6.02849       -3.35923       -2.17887
C          5.97055       -1.06219       -2.85293
N          6.47475       -1.71812       -4.11892
C          5.59195       -1.59355       -5.31041
C          5.03307       -0.37165       -5.67874
C          4.20107       -0.32624       -6.79971
C          3.94448       -1.48530       -7.53813
C          4.51442       -2.70159       -7.15567
C          5.34258       -2.76127       -6.03148
C          7.97686       -1.56736       -4.37653
C          8.60446       -0.16433       -4.63068
N          8.26293        0.77768       -3.54376
N         10.03031       -0.48716       -4.68114
N          8.11284        0.37303       -5.88544
H          6.93433       -3.91334        3.08214
H          5.82574       -4.85464        2.06817
H          5.20817       -3.51469        3.06047
H          7.17769       -3.20035        0.69590
H          6.53628       -1.86686        1.67438
H          4.21185       -2.39860        0.89932
H          4.86000       -3.73925       -0.10514
H          6.71129       -0.32719       -2.50576
H          5.02060       -0.55412       -3.04909
H          6.40163       -2.72825       -3.81484
H          5.24867        0.53815       -5.12157
H          3.75508        0.62274       -7.09723
H          3.29198       -1.44135       -8.41037
H          4.30758       -3.61024       -7.72052
H          5.77424       -3.71416       -5.71677
H          8.18960       -2.21400       -5.23557
H          8.45885       -2.00068       -3.48995
H          9.10384        1.23230       -3.19118
H          7.63196        1.50521       -3.88317
H         10.43052       -0.69141       -3.76339
H         10.56245        0.26952       -5.11173
H          8.56226        1.26849       -6.08695
H          8.31497       -0.25569       -6.66513
