91

C          0.44220        0.26638        0.27483
C          1.96985        0.31281        0.18897
C          2.58141       -0.93575       -0.45558
C          4.11033       -0.89981       -0.54549
C          4.71629       -2.15194       -1.18637
C          6.24519       -2.12403       -1.28136
C          6.83687       -3.38437       -1.91934
C          8.36501       -3.37428       -2.02714
C          8.93233       -4.65169       -2.65311
C         10.45913       -4.67005       -2.77624
C         10.99310       -5.97409       -3.37620
C         12.51794       -6.03184       -3.51040
C         13.01242       -7.36703       -4.07519
C         14.53437       -7.46897       -4.21502
C         14.98608       -8.82926       -4.75628
C         16.50453       -8.97084       -4.90017
C         16.90956      -10.34308       -5.44588
C         18.43941      -10.50233       -5.59251
C         18.81367      -11.83438       -6.13204
N         18.53593      -12.26606       -7.41181
C         18.96332      -13.53595       -7.53432
N         19.48688      -13.85131       -6.34368
N         19.40826      -12.80620       -5.46470
C         20.17322      -15.12213       -5.95411
O         21.19978      -15.43115       -6.82348
C         22.38710      -14.60208       -6.67531
C         23.40080      -15.02082       -7.72334
C         22.95418      -14.77187       -9.17050
C         24.04096      -15.10645      -10.19557
C         18.87652      -14.37890       -8.75950
C         18.11301      -13.70803       -9.90645
O         17.73211      -12.54409       -9.89547
O         17.95437      -14.56500      -10.90422
C         17.26696      -14.07500      -12.12120
C         15.76234      -14.19857      -11.99218
H          0.03549        1.17301        0.74381
H          0.10164       -0.59555        0.86811
H         -0.01140        0.17724       -0.72380
H          2.39213        0.44168        1.20014
H          2.28032        1.20436       -0.38202
H          2.15933       -1.06606       -1.46810
H          2.27043       -1.82879        0.11540
H          4.53213       -0.76746        0.46662
H          4.42134       -0.00887       -1.11928
H          4.29213       -2.28483       -2.19749
H          4.40436       -3.04201       -0.61158
H          6.67196       -1.99050       -0.27151
H          6.55976       -1.23777       -1.86037
H          6.40348       -3.51938       -2.92630
H          6.52070       -4.26807       -1.33696
H          8.80236       -3.23351       -1.02289
H          8.68549       -2.49991       -2.62064
H          8.48675       -4.79445       -3.65363
H          8.60802       -5.52171       -2.05489
H         10.90963       -4.51408       -1.78017
H         10.78950       -3.81663       -3.39409
H         10.53610       -6.13045       -4.36953
H         10.65385       -6.82169       -2.75458
H         12.98051       -5.85829       -2.52286
H         12.86410       -5.20586       -4.15616
H         12.54580       -7.53883       -5.06151
H         12.65413       -8.18663       -3.42748
H         15.00722       -7.28933       -3.23376
H         14.89998       -6.66717       -4.87992
H         14.51051       -9.00466       -5.73755
H         14.60934       -9.62617       -4.09157
H         16.98699       -8.80833       -3.92129
H         16.89061       -8.18104       -5.56743
H         16.42625      -10.50174       -6.42536
H         16.53231      -11.13743       -4.78166
H         18.93615      -10.39186       -4.61910
H         18.83962       -9.71714       -6.25446
H         18.08459      -11.80763       -8.22063
H         19.43498      -15.93452       -6.00267
H         20.48619      -14.94836       -4.91156
H         22.77881      -14.73536       -5.65272
H         22.10890      -13.53974       -6.80296
H         23.64611      -16.08524       -7.57979
H         24.32825      -14.46089       -7.51892
H         22.65393      -13.71441       -9.28040
H         22.05824      -15.37959       -9.38158
H         24.93945      -14.49239      -10.03958
H         23.69151      -14.93133      -11.22141
H         24.34346      -16.16088      -10.12349
H         18.40919      -15.34862       -8.52916
H         19.89370      -14.62497       -9.10792
H         17.66994      -14.72568      -12.90502
H         17.58915      -13.04120      -12.29520
H         15.46459      -15.23111      -11.76946
H         15.30178      -13.91475      -12.94861
H         15.36431      -13.53112      -11.21790
