62

F          3.65849        2.27843        0.46358
C          4.54638        1.32260       -0.04787
C          4.51685        0.09774        0.86083
C          5.55955       -0.93363        0.41761
N          5.54835       -2.12192        1.28533
N          4.51211       -3.00284        1.19240
C          4.77470       -3.91051        2.09862
N          5.94566       -3.63682        2.76193
C          6.43390       -2.47926        2.23200
C          7.66445       -1.75029        2.62933
C          7.37115       -0.49749        3.49053
C          8.64920        0.31761        3.72759
S          8.29241        2.04330        4.12012
C          7.89469        2.70178        2.49533
S          8.10385        1.81419        1.08310
N          7.45932        3.97739        2.52726
C          7.24793        4.76840        3.74800
C          5.79996        5.27186        3.78287
O          5.47668        6.01521        2.61708
C          5.65085        5.22213        1.44301
C          7.09051        4.72307        1.31440
C          6.50739       -4.40635        3.88738
C          6.10427       -3.79004        5.23198
C          6.83493       -4.44595        6.41594
S          7.04456       -3.28628        7.79381
C          8.39086       -2.30194        7.21234
S          9.35825       -2.66762        5.92102
N          8.57996       -1.16460        7.99466
C          7.73780       -0.63666        8.98686
C          8.36119        0.49048        9.43574
N          9.56837        0.69058        8.77141
C          9.68128       -0.29419        7.92713
H          5.55066        1.77517       -0.07050
H          4.22284        1.08258       -1.07318
H          3.51351       -0.35144        0.85333
H          4.73445        0.42468        1.88930
H          6.57061       -0.50446        0.45695
H          5.36536       -1.29640       -0.60070
H          4.15754       -4.78062        2.29832
H          8.18970       -1.42588        1.71741
H          8.33555       -2.43525        3.16593
H          6.91879       -0.78430        4.45060
H          6.64732        0.13320        2.96024
H          9.29463        0.31199        2.83766
H          9.22008       -0.05920        4.58842
H          7.94787        5.61929        3.73770
H          7.45354        4.16426        4.63907
H          5.65936        5.94634        4.63782
H          5.11451        4.40812        3.89361
H          5.40178        5.86907        0.59177
H          4.95253        4.36378        1.45293
H          7.78025        5.57674        1.21391
H          7.21269        4.06200        0.44962
H          7.60032       -4.41387        3.78207
H          6.15449       -5.43955        3.77300
H          5.01493       -3.85046        5.36868
H          6.36322       -2.72351        5.20453
H          7.84049       -4.79235        6.13595
H          6.27612       -5.28999        6.84166
H          6.79149       -1.09431        9.24670
H          8.01788        1.18202       10.19882
H         10.50432       -0.48800        7.24758
