60

C          7.90399       -2.79361       -0.41586
C          6.51644       -3.26367        0.02772
C          5.66030       -2.13489        0.61575
C          4.30921       -2.64949        1.12412
N          3.47484       -1.60008        1.74681
C          3.62944       -1.37312        3.06475
O          4.46819       -1.99414        3.75398
C          2.75903       -0.31789        3.77338
N          2.10690       -0.84736        4.98160
C          2.77238       -0.96160        6.17196
N          2.06450       -1.03183        7.30779
C          2.67227       -1.30040        8.61599
C          4.07504       -1.88196        8.45772
C          4.85970       -1.05433        7.42853
N          4.10601       -0.99470        6.17165
C          6.25545       -1.61570        7.09842
C          7.30056       -1.58374        8.24337
F          7.32143       -0.33063        8.79023
F          6.96046       -2.47345        9.22103
F          6.16280       -2.90680        6.65034
F          6.79169       -0.86967        6.07281
C          0.71359       -1.28075        4.89539
O         -0.19353       -0.48860        5.65541
C         -0.31722        0.88806        5.22765
O         -0.52724        1.03601        3.86319
C         -1.79688        0.54914        3.37284
C         -1.89508        0.93915        1.90787
O         -0.81269        0.40367        1.13759
C          2.57183       -0.83661        0.87680
H          8.49105       -3.62555       -0.82644
H          8.47075       -2.37182        0.42706
H          7.83778       -2.01894       -1.19354
H          6.62296       -4.06242        0.78079
H          5.98842       -3.71966       -0.82645
H          5.50379       -1.34945       -0.14303
H          6.19533       -1.66419        1.45574
H          4.46867       -3.42854        1.88018
H          3.71767       -3.08546        0.30597
H          1.96047        0.09040        3.14561
H          3.42083        0.51524        4.05792
H          1.07250       -0.79740        7.24456
H          2.02699       -2.00448        9.15844
H          2.70298       -0.36344        9.19466
H          4.02628       -2.92558        8.11615
H          4.57533       -1.87267        9.43267
H          5.02346       -0.03147        7.80715
H          4.50423       -1.36995        5.26184
H          8.30102       -1.83191        7.85534
H          0.60370       -2.29432        5.30393
H          0.44883       -1.28144        3.82927
H          0.61185        1.43849        5.44957
H         -1.15374        1.26853        5.83591
H         -2.62237        1.00044        3.95157
H         -1.84859       -0.54644        3.48286
H         -1.94097        2.03596        1.80812
H         -2.82329        0.52258        1.49073
H         -0.06928        1.01773        1.23273
H          2.85890       -1.02960       -0.16203
H          2.67017        0.24415        1.04026
H          1.52099       -1.13775        1.00137
