70

C          0.81823       -0.15722        0.40075
C          2.33310       -0.25096        0.20298
C          3.05842       -0.91027        1.38144
C          4.58009       -0.97239        1.21163
C          5.29538       -1.64290        2.38884
C          6.82409       -1.62840        2.26923
C          7.51144       -2.31336        3.45764
C          9.02506       -2.22473        3.39285
O          9.55996       -2.90984        4.55494
C         10.94245       -2.78786        4.67025
N         11.32045       -3.52218        5.88598
N         11.85981       -4.76476        5.81115
C         11.98306       -5.14883        7.06080
N         11.51417       -4.19692        7.92855
C         11.09591       -3.14913        7.16317
C         10.55311       -1.94286        7.61254
C         10.08345       -0.89556        7.99836
C         11.57049       -4.21197        9.40023
O         12.59374       -3.34095        9.75404
C         12.65000       -3.04684       11.17490
C         13.54936       -1.83881       11.36082
C         13.77265       -1.48781       12.83716
C         14.52688       -0.16527       13.01664
C         14.87185        0.15451       14.47427
C         15.52796        1.52782       14.65231
C         15.94479        1.82988       16.09476
C         16.55301        3.22512       16.27777
C         17.00812        3.50407       17.71226
H          0.32859        0.31956       -0.45915
H          0.56789        0.43398        1.29440
H          0.36836       -1.15318        0.52824
H          2.74656        0.75937        0.04303
H          2.55149       -0.81533       -0.71922
H          2.66300       -1.93114        1.52737
H          2.81913       -0.36006        2.30891
H          4.97254        0.05155        1.08132
H          4.82502       -1.51040        0.27927
H          4.94571       -2.68543        2.48497
H          5.00337       -1.13872        3.32685
H          7.17099       -0.58341        2.19039
H          7.12600       -2.12249        1.33003
H          7.22023       -3.37480        3.50018
H          7.17346       -1.85371        4.40047
H          9.36441       -1.17188        3.40606
H          9.42174       -2.70229        2.47853
H         11.27230       -1.73791        4.79210
H         11.50605       -3.26482        3.84963
H         12.40028       -6.09970        7.37735
H          9.66909        0.03364        8.33933
H         11.74713       -5.26236        9.69887
H         10.58393       -3.89026        9.78406
H         13.03657       -3.93177       11.71101
H         11.62678       -2.84214       11.54119
H         13.09852       -0.98231       10.83339
H         14.51634       -2.03780       10.87241
H         14.33111       -2.30286       13.32791
H         12.80229       -1.42500       13.35959
H         13.91924        0.65482       12.59501
H         15.45569       -0.19009       12.42038
H         15.54254       -0.62824       14.86939
H         13.95592        0.10593       15.08901
H         14.83139        2.30974       14.30122
H         16.41354        1.59741       13.99621
H         16.67125        1.06891       16.43070
H         15.06967        1.72445       16.76026
H         15.81430        3.98466       15.96974
H         17.40826        3.34103       15.59042
H         16.17067        3.42194       18.42109
H         17.42830        4.51420       17.81181
H         17.78179        2.79011       18.03174
