38

C          5.33723       -1.20538       -3.22193
C          4.77605       -0.15047       -3.02456
C          4.10731        1.11737       -2.76097
C          4.06619        1.48527       -1.26018
C          5.45225        1.57834       -0.59340
P          6.41254        3.07538       -0.99399
C          6.07510        4.45800        0.19821
C          6.26966        5.80820       -0.50791
O          7.52663        5.80019       -1.18451
C          4.68079        4.39005        0.84014
C          8.20355        2.75970       -1.07849
C          8.55223        1.59217       -2.05419
N          7.58641        1.64346       -3.17642
N          9.96057        1.76807       -2.39022
N          8.32317        0.32979       -1.35934
H          5.77730       -2.16264       -3.41223
H          3.07333        1.06395       -3.13658
H          4.60182        1.90999       -3.34680
H          3.50242        0.70886       -0.72401
H          3.49550        2.41787       -1.14098
H          6.09761        0.73056       -0.87552
H          5.36844        1.55194        0.50310
H          5.98275        3.55300       -2.24711
H          6.84733        4.35456        0.97907
H          6.22836        6.60552        0.25364
H          5.43769        5.97426       -1.21807
H          7.67646        6.67053       -1.58552
H          3.87897        4.46759        0.09285
H          4.56297        5.23177        1.53564
H          4.52877        3.47087        1.41727
H          8.58211        2.56526       -0.06490
H          8.64115        3.71134       -1.41131
H          8.01111        2.04217       -4.01160
H          7.20481        0.72391       -3.40741
H         10.15567        2.65775       -2.85265
H         10.29427        1.01226       -2.99074
H          8.41425       -0.45492       -2.00812
H          9.03607        0.20567       -0.63811
