73

O          8.11359        6.94868       -6.71031
C          6.95636        6.78081       -7.53840
C          5.75175        6.57947       -6.64672
O          5.86805        5.30442       -6.01072
C          4.87265        5.04121       -5.05008
C          5.24285        3.69747       -4.39314
C          6.66550        3.69512       -3.95832
N          7.66955        3.07330       -4.59842
N          8.79804        3.35423       -3.97238
N          8.51248        4.12631       -2.93876
N          7.17526        4.37729       -2.90429
C          6.49600        5.03497       -1.77453
C          6.17927        4.04296       -0.64956
C          5.39114        4.69390        0.49280
C          5.03380        3.68586        1.59206
C          4.19413        4.28132        2.72687
C          3.83280        3.25094        3.80230
C          2.95886        3.81067        4.92906
C          2.60218        2.76566        5.99131
C          1.71459        3.30637        7.11661
C          1.36335        2.25238        8.17213
C          0.48280        2.79406        9.30115
C          0.13076        1.72230       10.34105
N         -0.68170        2.23193       11.43852
C         -0.19491        2.74943       12.61797
C         -1.26491        3.23043       13.35886
C         -2.43887        3.00251       12.59700
C         -2.04953        2.38960       11.41462
C          9.52542        4.77058       -2.10162
C          9.74357        6.22810       -2.42996
C          9.28266        6.87139       -3.50363
H          8.89030        7.00759       -7.28719
H          7.06615        5.90637       -8.20275
H          6.77907        7.67392       -8.16355
H          4.82961        6.62528       -7.25509
H          5.70772        7.38092       -5.88435
H          3.86529        4.95822       -5.50010
H          4.82907        5.85400       -4.29575
H          5.14037        2.88649       -5.12502
H          4.56517        3.48549       -3.55321
H          5.58108        5.47693       -2.18941
H          7.13133        5.86827       -1.44582
H          7.11665        3.61082       -0.26248
H          5.60203        3.20251       -1.06787
H          4.46634        5.14264        0.09092
H          5.97416        5.52560        0.92344
H          5.96162        3.25678        2.00840
H          4.48532        2.84049        1.14127
H          3.26875        4.71387        2.30809
H          4.74038        5.12176        3.18908
H          4.75995        2.83331        4.23239
H          3.31175        2.40066        3.32802
H          2.03099        4.22691        4.49915
H          3.47685        4.65947        5.40881
H          3.53119        2.35570        6.42502
H          2.09515        1.91298        5.50608
H          0.78405        3.71472        6.68527
H          2.21950        4.15790        7.60510
H          2.29502        1.83987        8.59805
H          0.85451        1.40338        7.68224
H         -0.45040        3.20888        8.88642
H          0.99183        3.62818        9.81107
H          1.04653        1.29297       10.77425
H         -0.41593        0.89244        9.86734
H          0.86799        2.72426       12.83666
H         -1.20145        3.67968       14.34449
H         -3.45870        3.24206       12.87996
H         -2.63332        2.04645       10.56631
H         10.43440        4.17507       -2.27411
H          9.24353        4.62899       -1.04694
H         10.36248        6.74485       -1.69169
H          8.68075        6.40887       -4.28962
H          9.51941        7.92428       -3.65161
