111

C          0.29602       -0.20277        0.17685
C          1.82664       -0.23640        0.16200
C          2.45633        1.01086       -0.46824
C          3.98825        0.99216       -0.47861
C          4.61370        2.24140       -1.10739
C          6.14576        2.23435       -1.10350
C          6.76489        3.48835       -1.72857
C          8.29654        3.50274       -1.70259
C          8.90344        4.76094       -2.33071
C         10.43347        4.80863       -2.27627
C         11.02323        6.06112       -2.93151
C         12.54891        6.15496       -2.83608
C         13.12412        7.39195       -3.53264
C         14.63845        7.55129       -3.36381
C         15.20633        8.75815       -4.11767
C         16.69260        9.01245       -3.84804
C         17.25376       10.19968       -4.63782
C         18.69941       10.54797       -4.26581
C         19.25262       11.72921       -5.07327
C         20.62453       12.16468       -4.55323
N         21.20069       13.30323       -5.29854
C         22.17399       13.17168       -6.20725
N         22.43215       14.38888       -6.70104
C         21.61559       15.33826       -6.10491
C         20.81780       14.64951       -5.20702
C         19.72372       15.08496       -4.28316
C         19.76603       16.52951       -3.76253
C         18.69819       16.74135       -2.68242
C         18.56878       18.19123       -2.20712
C         17.46671       18.37084       -1.15701
C         17.22616       19.82619       -0.74489
C         16.07664       19.98774        0.25597
C         15.75320       21.44647        0.59600
C         14.56032       21.60253        1.54520
C         14.19135       23.06139        1.83725
C         12.97552       23.20778        2.75604
C         21.66702       16.77141       -6.52347
C         20.56443       17.18177       -7.49710
C         19.90633       16.25326       -8.42827
O         19.24574       16.69126       -7.22361
H         -0.12413       -1.10993        0.63291
H         -0.11148       -0.12444       -0.84231
H         -0.07878        0.66011        0.74764
H          2.17075       -1.13127       -0.38403
H          2.20282       -0.35031        1.19294
H          2.10669        1.90759        0.07387
H          2.08517        1.12241       -1.50259
H          4.33918        0.09610       -1.02053
H          4.35811        0.88140        0.55614
H          4.25372        3.13750       -0.57139
H          4.25198        2.34741       -2.14547
H          6.50923        1.34049       -1.64063
H          6.50682        2.12855       -0.06515
H          6.38559        4.38199       -1.20187
H          6.41693        3.58540       -2.77225
H          8.68112        2.61011       -2.22682
H          8.64420        3.41142       -0.65831
H          8.49590        5.65318       -1.82307
H          8.57377        4.83785       -3.38200
H         10.84755        3.90979       -2.76620
H         10.76275        4.75627       -1.22338
H         10.57675        6.95848       -2.46759
H         10.72122        6.09129       -3.99342
H         13.00257        5.24671       -3.27019
H         12.84701        6.16173       -1.77268
H         12.62182        8.29529       -3.14349
H         12.87691        7.35115       -4.60818
H         15.14773        6.63318       -3.70524
H         14.87516        7.64597       -2.28938
H         14.63266        9.66080       -3.84210
H         15.04647        8.61955       -5.20129
H         17.27425        8.10499       -4.08623
H         16.83846        9.19072       -2.76821
H         16.61705       11.08513       -4.46485
H         17.19005        9.98623       -5.71879
H         19.34614        9.66543       -4.40859
H         18.74409       10.78827       -3.18925
H         18.54830       12.57315       -5.01691
H         19.33668       11.45963       -6.13842
H         21.35259       11.34511       -4.62572
H         20.57392       12.45628       -3.49492
H         22.67426       12.25009       -6.48016
H         23.13806       14.58660       -7.40481
H         19.72255       14.40704       -3.41382
H         18.75861       14.92254       -4.79264
H         19.58071       17.23106       -4.58861
H         20.76420       16.75655       -3.35263
H         18.91764       16.08792       -1.81978
H         17.72189       16.40747       -3.07569
H         18.35360       18.83883       -3.07510
H         19.53356       18.53871       -1.79808
H         17.71083       17.76947       -0.26372
H         16.52459       17.95182       -1.55295
H         17.00659       20.42473       -1.64666
H         18.15191       20.25048       -0.31838
H         16.31562       19.43723        1.18289
H         15.17192       19.50568       -0.15509
H         15.54579       21.99696       -0.33878
H         16.64233       21.92863        1.03880
H         14.77551       21.08235        2.49547
H         13.68394       21.08752        1.11271
H         13.99649       23.58163        0.88388
H         15.05883       23.57327        2.28752
H         12.08238       22.74165        2.31389
H         12.73866       24.26382        2.94518
H         13.14970       22.72776        3.73086
H         22.64223       16.98736       -6.98905
H         21.60878       17.41606       -5.63581
H         20.60247       18.24181       -7.77312
H         20.18624       15.19453       -8.44009
H         19.47988       16.63655       -9.35910
