114

C         20.40533       11.10403       19.66979
C         19.72276        9.73397       19.66946
C         20.03899        8.89904       18.42413
C         19.33777        7.53747       18.39724
C         19.66794        6.70305       17.15592
C         18.91936        5.36824       17.09109
C         19.25437        4.53969       15.84708
C         18.47368        3.22558       15.75108
C         18.80826        2.40408       14.50226
C         18.01578        1.09785       14.39364
C         18.34822        0.28090       13.14128
C         17.54831       -1.01999       13.02528
C         17.90035       -1.85003       11.78704
C         17.10001       -3.15058       11.67240
C         17.50937       -4.02383       10.48266
C         16.72671       -5.33974       10.40453
C         17.14013       -6.28012        9.26006
C         18.62045       -6.69993        9.24626
C         19.10340       -7.31904       10.56374
C         20.57271       -7.75855       10.48554
C         21.07462       -8.44381       11.76336
C         20.91741       -7.55804       13.00793
C         21.48071       -8.16071       14.29748
C         22.92976       -8.61000       14.09763
C         23.08471       -9.56364       12.90938
N         22.56901       -8.83517       11.64558
C         22.94781       -9.49784       10.32714
C         24.44039       -9.77619       10.19309
C         24.76592      -10.23715        8.75381
C         26.18593      -10.50445        8.58036
C         27.36948      -10.71937        8.45980
C         22.43455      -10.92873       13.13637
O         22.78790      -11.79441       12.08192
C         22.28025      -13.13307       12.23313
C         22.65533      -13.92233       10.99072
C         22.17861      -15.37888       11.03925
C         22.53572      -16.16284        9.77129
C         22.06147      -17.61936        9.79765
C         22.40651      -18.39748        8.52237
C         21.92568      -19.85064        8.55131
H         20.16286       11.67645       20.57587
H         20.09185       11.70581       18.80350
H         21.50025       11.00537       19.62243
H         18.63028        9.86651       19.74884
H         20.02336        9.17095       20.56948
H         21.13132        8.75053       18.35344
H         19.75559        9.47068       17.52238
H         18.24539        7.69022       18.45347
H         19.60839        6.96747       19.30376
H         20.75575        6.51557       17.12056
H         19.43548        7.29157       16.25068
H         17.83218        5.56002       17.11909
H         19.14353        4.77667       17.99644
H         20.33742        4.32370       15.83343
H         19.05794        5.14480       14.94441
H         17.39130        3.44387       15.76349
H         18.66773        2.61711       16.65220
H         19.88939        2.17754       14.49313
H         18.62277        3.01752       13.60291
H         16.93532        1.32539       14.40362
H         18.20097        0.48189       15.29167
H         19.42826        0.04785       13.13437
H         18.16937        0.89942       12.24420
H         16.46970       -0.78524       13.01274
H         17.71129       -1.63115       13.93107
H         18.97993       -2.08695       11.80446
H         17.74258       -1.24154       10.87963
H         16.02387       -2.91582       11.60338
H         17.21864       -3.73324       12.60412
H         18.59317       -4.22687       10.55522
H         17.37655       -3.46093        9.54248
H         15.65417       -5.11384       10.29369
H         16.80943       -5.86729       11.37120
H         16.91291       -5.80065        8.29455
H         16.51204       -7.18538        9.30214
H         19.25383       -5.82846        9.01020
H         18.77718       -7.41778        8.42423
H         18.47184       -8.18738       10.82149
H         18.96983       -6.58749       11.37310
H         21.20255       -6.87633       10.26754
H         20.66720       -8.43994        9.62873
H         20.54570       -9.39900       11.89810
H         19.84898       -7.34273       13.13156
H         21.39995       -6.58436       12.80385
H         20.85697       -9.00707       14.62356
H         21.42865       -7.41686       15.10371
H         23.32429       -9.10865       14.99358
H         23.57631       -7.73084       13.93300
H         24.15056       -9.73418       12.71237
H         23.07792       -7.93783       11.65270
H         22.63361       -8.79855        9.54466
H         22.36018      -10.41905       10.25190
H         24.75909      -10.56426       10.88587
H         25.02906       -8.86982       10.41336
H         24.44555       -9.47091        8.02717
H         24.19016      -11.14893        8.51997
H         28.41470      -10.91290        8.33555
H         21.33447      -10.86260       13.24265
H         22.82089      -11.29817       14.10733
H         21.18163      -13.09632       12.36578
H         22.71384      -13.58724       13.14397
H         23.75033      -13.88941       10.86872
H         22.22317      -13.41950       10.10883
H         21.08533      -15.40582       11.18886
H         22.61920      -15.88169       11.91703
H         23.62940      -16.13631        9.62308
H         22.09899      -15.65309        8.89435
H         20.96879      -17.64541        9.95557
H         22.50438      -18.13274       10.66911
H         23.49836      -18.37271        8.36690
H         21.96613      -17.88046        7.65283
H         22.37793      -20.40517        9.38682
H         22.18620      -20.37848        7.62400
H         20.83345      -19.90805        8.67008
