74

C          0.83339        0.18005        0.24466
C          2.36320        0.14324        0.19723
C          2.92017       -1.11399       -0.47939
C          4.45068       -1.16178       -0.53254
C          4.99694       -2.42452       -1.20536
C          6.52643       -2.48590       -1.27044
C          7.04681       -3.75913       -1.94413
C          8.57339       -3.83874       -2.03946
C          9.06126       -5.13291       -2.69897
C         10.58714       -5.22337       -2.81929
C         11.03272       -6.54494       -3.42007
O         12.46931       -6.57099       -3.48283
C         12.97467       -7.78961       -3.96613
C         14.48138       -7.74689       -4.00406
C         15.15300       -6.51366       -3.78943
C         16.52958       -6.39990       -3.81629
C         17.24449       -5.08593       -3.59825
C         16.34461       -3.86244       -3.40600
C         17.16273       -2.59378       -3.22895
F         17.98343       -2.67016       -2.14374
F         17.95744       -2.35204       -4.30907
F         16.36457       -1.51620       -3.06128
C         17.28942       -7.59462       -4.05909
C         16.61549       -8.84951       -4.28694
C         15.20974       -8.89932       -4.25584
C         17.41895       -9.99754       -4.52546
C         18.78345       -9.91676       -4.52545
N         19.40809       -8.70636       -4.30122
C         18.69008       -7.58778       -4.08556
C         20.85967       -8.64365       -4.27785
C         21.58091       -9.07331       -5.39443
C         22.97452       -8.99907       -5.35963
C         23.62717       -8.50616       -4.22559
C         22.88934       -8.08461       -3.11626
C         21.49528       -8.15165       -3.13511
H          0.46650        1.09137        0.73656
H          0.42984       -0.68116        0.79798
H          0.40148        0.15237       -0.76699
H          2.76575        0.21084        1.22227
H          2.73776        1.03577       -0.33225
H          2.51764       -1.18347       -1.50572
H          2.54568       -2.00824        0.04996
H          4.85426       -1.09014        0.49300
H          4.82601       -0.27090       -1.06647
H          4.58829       -2.49684       -2.22885
H          4.62077       -3.31387       -0.66940
H          6.94075       -2.41550       -0.24919
H          6.90665       -1.60176       -1.81188
H          6.61674       -3.83414       -2.95851
H          6.67122       -4.63979       -1.39368
H          9.01054       -3.75645       -1.02889
H          8.95318       -2.97044       -2.60568
H          8.60737       -5.22273       -3.70115
H          8.68763       -5.99490       -2.11917
H         11.05012       -5.11226       -1.82519
H         10.96734       -4.39689       -3.44153
H         10.62061       -6.67828       -4.43901
H         10.67967       -7.39353       -2.80274
H         12.59765       -8.00351       -4.99025
H         12.64974       -8.64047       -3.33143
H         14.52401       -5.64687       -3.59529
H         17.90951       -4.89502       -4.45673
H         17.90344       -5.17694       -2.71828
H         15.70845       -3.95849       -2.51484
H         15.68945       -3.69996       -4.27355
H         14.70369       -9.85235       -4.42245
H         16.95041      -10.96651       -4.69660
H         19.44508      -10.76697       -4.66930
H         19.27706       -6.68234       -3.94759
H         21.06404       -9.43587       -6.28372
H         23.55052       -9.31968       -6.22746
H         24.71556       -8.45298       -4.20490
H         23.39683       -7.71245       -2.22647
H         20.91093       -7.85321       -2.26372
