46

C          0.24055        0.84563        0.79368
C          1.72707        0.73630        0.44928
C          2.58481        0.38421        1.67101
C          4.06920        0.30859        1.30165
N          4.91891        0.03569        2.49414
N          5.18148        1.15174        3.18400
C          5.88895        1.05984        4.30907
C          6.09356        2.32678        5.08232
C          5.13096        2.40777        6.29107
N          3.74146        2.34975        5.84337
C          6.37374       -0.18763        4.76152
C          6.08092       -1.31567        4.02792
C          5.31232       -1.21130        2.85214
C          4.97630       -2.40813        2.01662
C          5.96928       -2.67244        0.83940
C          7.41310       -2.95295        1.30836
C          7.62781       -4.23694        2.11626
C          5.40182       -3.78913       -0.04525
H         -0.34988        1.09087       -0.09824
H          0.06129        1.63277        1.53927
H         -0.14790       -0.09857        1.20101
H          2.07945        1.68874        0.02085
H          1.87161       -0.02584       -0.33426
H          2.25430       -0.57735        2.09721
H          2.45811        1.14347        2.45814
H          4.42190        1.27193        0.91459
H          4.26767       -0.46497        0.55271
H          5.92507        3.18262        4.41450
H          7.13044        2.37797        5.44622
H          5.39702        3.31536        6.86326
H          5.31050        1.55124        6.96008
H          3.46442        3.22595        5.39884
H          3.11325        2.21011        6.63418
H          6.96566       -0.24670        5.67585
H          6.42636       -2.30165        4.33651
H          3.95813       -2.31798        1.61457
H          4.96985       -3.28402        2.68150
H          6.01191       -1.75138        0.23206
H          7.78655       -2.08828        1.88215
H          8.04270       -2.99283        0.40606
H          7.03664       -4.26487        3.04454
H          8.68244       -4.33163        2.40509
H          7.36783       -5.13362        1.53869
H          5.26814       -4.72517        0.51476
H          6.07936       -3.99512       -0.88496
H          4.42450       -3.51088       -0.46414
