66

C          2.00371       -3.65480        2.38464
O          3.23036       -2.92483        2.29615
C          3.19646       -1.91095        1.30724
C          4.59831       -1.32230        1.21245
N          5.01629       -0.50498        2.38890
C          4.63905       -0.73143        3.77713
C          5.32091       -1.91571        4.49446
O          6.78238       -1.93183        4.48065
C          7.49539       -0.93257        5.04175
O          7.02622        0.15096        5.36881
C          8.95689       -1.29296        5.16319
S          9.85292       -0.82427        3.63152
C          4.77987       -1.99602        5.92728
O          5.41251       -3.03270        6.69550
C          4.95303       -4.30450        6.48330
O          4.05508       -4.57521        5.71284
C          5.72785       -5.29989        7.31282
S          7.24954       -5.81525        6.43134
C          5.92038        0.40079        1.97761
N          6.55336        1.26619        2.77716
N          6.08374        0.35691        0.64000
C          4.96561       -0.38278        0.01457
C          3.92528        0.59286       -0.65869
C          3.34096        1.59496        0.37593
C          2.41466        2.74127       -0.10131
C          0.96165        2.30824       -0.34479
C          2.44584        3.87101        0.94028
C          4.66993        1.33455       -1.79674
O          5.71682        2.18466       -1.28208
C          2.85161       -0.24454       -1.38783
H          2.13824       -4.39452        3.18143
H          1.78232       -4.16915        1.43382
H          1.15917       -2.99076        2.63915
H          2.43653       -1.14310        1.55117
H          2.93287       -2.34293        0.32498
H          5.28313       -2.18791        1.15527
H          3.56260       -0.94847        3.79866
H          4.79583        0.20193        4.33039
H          5.07300       -2.84153        3.96246
H          9.10341       -2.35678        5.37713
H          9.39777       -0.68220        5.95930
H          9.44717       -1.88609        2.89670
H          3.69639       -2.17829        5.87600
H          4.98053       -1.07119        6.48132
H          5.09955       -6.17012        7.52729
H          6.07427       -4.84729        8.24939
H          6.61833       -6.52103        5.46338
H          6.65364        1.05830        3.77839
H          7.27780        1.84651        2.37047
H          6.41935        1.17770        0.12234
H          5.36774       -1.01439       -0.79159
H          4.18989        2.07369        0.88623
H          2.79961        1.02687        1.15107
H          2.81609        3.15724       -1.04073
H          0.52691        1.87839        0.57146
H          0.85617        1.56742       -1.14603
H          0.34646        3.17562       -0.62091
H          2.07656        3.51633        1.91557
H          1.80583        4.70883        0.63223
H          3.46389        4.25937        1.08561
H          3.94062        1.94276       -2.35373
H          5.09386        0.59159       -2.49658
H          6.11643        2.66622       -2.02291
H          2.06734       -0.59560       -0.70920
H          3.29631       -1.11755       -1.88869
H          2.35696        0.35198       -2.16492
