62

C         10.41389        4.00116       -3.70059
C          9.59733        3.01343       -2.86313
C          9.87066        3.13094       -1.35960
C          9.07497        2.13455       -0.50814
C          9.37264        2.26641        0.99076
C          8.61561        1.25694        1.83646
O          8.98086        1.45700        3.21723
C          8.33938        0.58047        4.11898
C          8.84559        0.97779        5.51070
N          8.60854        2.42034        5.68976
C          7.59933        2.77521        6.45353
S          6.85790        1.48523        7.27811
C          8.14938        0.27622        6.69499
C          9.08300       -0.09973        7.84865
C          8.35506       -0.83784        8.97319
O          7.64645       -1.92361        8.40603
Si         6.62549       -2.96093        9.27581
C          5.17841       -1.96388        9.94647
C          6.07958       -4.20963        7.99577
C          7.57977       -3.75794       10.68115
C          7.11312        4.19291        6.58117
C          8.15534        5.03747        7.34414
O          8.42630        4.38213        8.57549
C          6.77867        4.80737        5.20938
H         10.19686        3.89503       -4.77175
H         11.49400        3.84334       -3.56395
H         10.19429        5.04190       -3.41938
H          9.81467        1.98325       -3.19186
H          8.52168        3.16999       -3.05089
H          9.64316        4.15930       -1.02725
H         10.94934        2.98576       -1.17382
H          9.30474        1.10760       -0.84044
H          7.99545        2.27871       -0.68728
H          9.11593        3.28282        1.33361
H         10.45200        2.13551        1.16998
H          8.86873        0.22193        1.54090
H          7.52130        1.38171        1.72752
H          8.59649       -0.47888        3.92673
H          7.23583        0.68043        4.06604
H          9.93142        0.80430        5.55398
H          9.04550        3.06385        5.02959
H          7.60307       -0.61886        6.36888
H          9.59212        0.79134        8.24836
H          9.85409       -0.76651        7.42773
H          7.67120       -0.14199        9.49929
H          9.09746       -1.17941        9.71590
H          4.62896       -1.46115        9.13767
H          5.50111       -1.20139       10.66975
H          4.46949       -2.62350       10.46721
H          5.55897       -3.72272        7.15948
H          5.38890       -4.94128        8.43802
H          6.93940       -4.76076        7.59121
H          7.92164       -3.01928       11.42002
H          8.45738       -4.30484       10.30973
H          6.93898       -4.47622       11.21276
H          6.20423        4.16080        7.20059
H          7.72842        6.04342        7.49376
H          9.07134        5.14500        6.73156
H          8.92044        4.98274        9.15473
H          7.67180        4.93056        4.57977
H          6.33584        5.80106        5.35133
H          6.05474        4.19003        4.66376
