66

C          1.95802       -1.22300       -0.41821
C          3.07794       -0.21045       -0.16554
C          3.37006       -0.01737        1.32805
C          4.48104        0.98414        1.59274
O          4.72541        1.03537        3.01398
C          5.65146        2.05769        3.40903
C          5.93189        1.96231        4.91856
C          4.62869        1.75588        5.72716
N          4.12910        0.34296        5.53683
C          5.17847       -0.64311        5.98433
C          6.46829       -0.39733        5.19021
N          6.96385        0.97401        5.25318
C          7.75057        1.30928        6.45457
C          8.84058        2.34648        6.16999
C          9.61643        2.73639        7.43147
C         10.75557        3.72707        7.14089
N         11.44437        4.16410        8.34186
C         11.08134        5.24694        9.11711
C         11.88592        5.26243       10.24132
C         12.76237        4.14441       10.15009
C         12.46461        3.48212        8.97344
C          2.76619        0.11079        6.17198
C          2.20651       -1.24076        5.82374
C          1.65760       -1.46778        4.55165
C          1.16872       -2.72907        4.21016
C          1.21400       -3.77215        5.14089
C          1.74625       -3.55080        6.41410
C          2.24276       -2.29049        6.75345
H          1.77002       -1.34712       -1.49234
H          1.01429       -0.90160        0.04634
H          2.21341       -2.21226       -0.01057
H          2.80762        0.75932       -0.61445
H          3.99657       -0.53858       -0.67799
H          3.64506       -0.98530        1.78075
H          2.45405        0.32595        1.83839
H          4.20038        1.99299        1.23953
H          5.41581        0.69216        1.08089
H          5.22169        3.04824        3.16916
H          6.60541        1.94730        2.86674
H          6.32444        2.94814        5.20873
H          3.83086        2.43263        5.39340
H          4.79187        1.90474        6.80317
H          4.03939        0.25335        4.49775
H          4.78028       -1.64999        5.80907
H          5.31380       -0.49783        7.06610
H          6.28968       -0.66976        4.13842
H          7.24447       -1.07614        5.56616
H          8.22672        0.37996        6.80100
H          7.11848        1.65885        7.29918
H          8.39506        3.25299        5.72410
H          9.51886        1.93319        5.40663
H         10.04150        1.83946        7.91037
H          8.93773        3.19068        8.17134
H         10.36295        4.61991        6.63008
H         11.49316        3.27121        6.46241
H         10.29570        5.92234        8.79262
H         11.86038        6.00840       11.02908
H         13.53834        3.86564       10.85564
H         12.90107        2.59508        8.52461
H          2.12614        0.92436        5.80296
H          2.89720        0.23547        7.25550
H          1.59839       -0.65232        3.82739
H          0.74026       -2.89558        3.22146
H          0.82444       -4.75556        4.87642
H          1.77129       -4.35870        7.14560
H          2.65151       -2.11841        7.75162
