65

C          1.23971       -0.45483       -0.10500
C          2.74080       -0.31599        0.15943
C          3.03409        0.16954        1.58472
C          4.54869        0.30738        1.82018
N          4.87639        0.86173        3.14937
C          5.07584        2.12375        3.47508
C          5.49109        2.26250        4.90318
C          5.15557        0.88873        5.50310
C          5.17759       -0.05418        4.29574
C          4.23582       -1.25625        4.40371
O          4.76851       -1.98372        5.49644
C          4.16013       -3.16134        5.88220
C          3.08553       -3.71718        5.17772
C          2.51775       -4.93107        5.58037
C          1.36449       -5.53881        4.82896
C          3.05988       -5.57023        6.70862
C          4.12480       -5.00199        7.40584
C          4.70752       -3.78647        7.03031
C          5.84689       -3.21091        7.85626
C          7.16587       -3.05326        7.07447
C          5.44266       -1.91186        8.58260
C          4.90578        3.21819        2.46096
O          4.24587        3.06448        1.45044
C          5.64480        4.58803        2.64499
C          4.70208        5.85097        2.71598
C          3.64206        5.87382        3.87453
C          4.22525        6.11425        5.30525
O          4.61067        5.19081        5.97750
O          4.26216        7.38535        5.70830
F          2.74953        6.86564        3.57584
F          2.97591        4.68106        3.86830
F          5.49792        6.94692        2.86412
F          4.04025        5.94878        1.54307
F          6.46358        4.59785        3.73413
F          6.42219        4.74236        1.53931
H          1.05415       -0.79260       -1.13255
H          0.71959        0.50443        0.02828
H          0.77582       -1.18533        0.57349
H          3.18031        0.39394       -0.55956
H          3.24187       -1.28286       -0.01361
H          2.59768       -0.52884        2.31493
H          2.56205        1.14851        1.74945
H          4.98075        0.96542        1.05833
H          5.05015       -0.66823        1.76134
H          5.01277        3.11783        5.40074
H          6.57499        2.47366        4.92741
H          4.15094        0.89932        5.95082
H          5.86344        0.57804        6.27681
H          6.19433       -0.44946        4.11119
H          4.25116       -1.86542        3.48422
H          3.19649       -0.93429        4.60070
H          2.67607       -3.21456        4.30103
H          1.06774       -4.92491        3.96945
H          0.48727       -5.65492        5.48217
H          1.62081       -6.54190        4.45782
H          2.64169       -6.52124        7.04193
H          4.52448       -5.51571        8.28212
H          6.03660       -3.96198        8.64006
H          7.10041       -2.26565        6.31226
H          7.44260       -3.98960        6.57169
H          7.97899       -2.78851        7.76448
H          5.24425       -1.09676        7.87407
H          6.24841       -1.58786        9.25586
H          4.53717       -2.06182        9.18535
H          3.85018        7.97915        5.05020
