83

C          0.55324        0.24376        0.17583
C          2.08332        0.24789        0.14707
C          2.66927       -0.69415       -0.90925
C          4.20038       -0.70338       -0.94651
C          4.78215       -1.65284       -1.99819
C          6.31361       -1.67340       -2.03101
C          6.88997       -2.63819       -3.07175
C          8.42141       -2.66702       -3.10760
C          8.98853       -3.65099       -4.13565
C         10.51957       -3.67801       -4.18934
C         11.07468       -4.68626       -5.20048
C         12.60414       -4.69430       -5.29328
C         13.14595       -5.72685       -6.28707
C         14.66910       -5.69291       -6.44914
C         15.19423       -6.73911       -7.43795
C         16.70658       -6.66186       -7.67514
C         17.20590       -7.70952       -8.67631
C         18.70142       -7.58401       -8.99603
C         19.16071       -8.64117      -10.01534
C         20.63242       -8.43835      -10.37468
S         21.24819       -9.73408      -11.53707
C         20.92733       -8.88912      -13.22587
C         21.11232       -9.89335      -14.40683
F         20.34562      -10.98808      -14.14799
F         20.65874       -9.27598      -15.52265
F         19.65913       -8.45047      -13.17034
F         21.75453       -7.83384      -13.36178
C         23.10196       -9.61515      -11.39300
C         23.79512      -10.45140      -12.42983
C         24.54762       -9.82256      -13.43636
C         25.19757      -10.58927      -14.40674
C         25.09044      -11.98312      -14.38470
C         24.34623      -12.61402      -13.38148
C         23.70359      -11.85364      -12.40394
H          0.16080        0.92658        0.94208
H          0.16276       -0.76150        0.39405
H          0.13652        0.55585       -0.79347
H          2.47222       -0.03507        1.13988
H          2.44690        1.27257       -0.03943
H          2.28116       -0.41073       -1.90369
H          2.30292       -1.71946       -0.72368
H          4.58678       -0.98297        0.04953
H          4.56688        0.32089       -1.13631
H          4.39998       -1.37070       -2.99512
H          4.40912       -2.67515       -1.81027
H          6.69524       -1.94600       -1.03126
H          6.68829       -0.65389       -2.23009
H          6.50783       -2.36648       -4.07158
H          6.51218       -3.65627       -2.87080
H          8.80474       -2.92636       -2.10501
H          8.80067       -1.65266       -3.32356
H          8.59497       -3.39900       -5.13620
H          8.61442       -4.66541       -3.91096
H         10.91677       -3.91138       -3.18584
H         10.89347       -2.66872       -4.43600
H         10.65360       -4.46966       -6.19815
H         10.71958       -5.69791       -4.93625
H         13.03179       -4.88877       -4.29407
H         12.95575       -3.68845       -5.58311
H         12.67591       -5.56204       -7.27271
H         12.83376       -6.73694       -5.96884
H         15.14822       -5.84412       -5.46613
H         14.97567       -4.68692       -6.78526
H         14.67292       -6.61728       -8.40363
H         14.93061       -7.74819       -7.07635
H         17.23910       -6.78497       -6.71638
H         16.96520       -5.65351       -8.04225
H         16.63060       -7.61848       -9.61363
H         16.99818       -8.72028       -8.28569
H         19.29269       -7.68081       -8.06983
H         18.90560       -6.57566       -9.39422
H         18.53742       -8.57169      -10.91799
H         19.01630       -9.64999       -9.59832
H         21.29015       -8.56645       -9.50016
H         20.84446       -7.45970      -10.82859
H         22.16468      -10.18830      -14.53774
H         23.26142       -9.98093      -10.36693
H         23.36160       -8.55069      -11.44878
H         24.63517       -8.73425      -13.45491
H         25.78922      -10.09666      -15.17864
H         25.59365      -12.58046      -15.14547
H         24.27195      -13.70133      -13.35747
H         23.13280      -12.35497      -11.61885
