45

O          1.18467        0.29969        0.16791
C          2.51703        0.72236       -0.10717
C          3.09088       -0.18058       -1.20487
N          2.94333       -1.64508       -0.82275
C          2.66411       -2.27144        0.33243
N          3.26831       -1.98551        1.51961
N          4.53073       -1.35753        1.39765
O          4.55641       -0.47782        2.51775
O          5.52175       -2.37600        1.69475
C          2.97633       -2.67410        2.80350
C          1.88807       -2.04237        3.67841
C          0.44844       -2.32853        3.28115
F          0.26849       -3.65915        2.98545
F         -0.40245       -2.01868        4.27619
F          0.05961       -1.63490        2.17766
N          1.79678       -3.30007        0.28125
C          2.22598       -0.09912       -2.50107
C          1.85448        1.26802       -3.11701
C          3.03480        2.11608       -3.61407
C          0.87274        1.00381       -4.27154
C          4.57008        0.13295       -1.45617
H          0.78943        0.89419        0.82304
H          3.14329        0.68987        0.79889
H          2.54737        1.75557       -0.49249
H          2.59381       -2.17879       -1.61634
H          5.35134        0.06373        2.35438
H          6.07552       -2.36064        0.89195
H          3.91917       -2.63548        3.35796
H          2.78884       -3.74300        2.63213
H          2.01796       -0.95472        3.74300
H          2.01037       -2.44773        4.69311
H          1.03955       -3.25315       -0.39131
H          1.62582       -3.88945        1.08748
H          1.27126       -0.59877       -2.27426
H          2.73576       -0.70598       -3.27233
H          1.30746        1.84477       -2.35172
H          3.69589        1.53743       -4.27731
H          3.64600        2.52561       -2.79947
H          2.66281        2.97386       -4.19014
H          1.35540        0.43133       -5.07872
H          0.51883        1.94864       -4.70416
H         -0.00763        0.43794       -3.93587
H          5.17061       -0.10510       -0.57260
H          4.70956        1.19308       -1.69235
H          4.94825       -0.44951       -2.30605
