92

C          4.03313       -1.90395       -0.84472
C          4.58328       -1.06461       -2.00024
C          3.98146        0.34372       -2.05610
C          4.53718        1.16217       -3.22973
N          3.95618        2.50870       -3.33794
C          2.87523        2.79358       -4.09490
S          2.21451        4.31916       -4.26671
S          2.19991        1.34329       -4.92774
C          0.79713        2.02632       -5.84750
C         -0.42817        2.30385       -4.96454
C         -1.68890        2.53496       -5.81102
N         -2.71324        3.48563       -5.24315
C         -3.26834        3.22655       -4.02008
N         -2.60214        2.62208       -3.03119
C         -3.42160        2.55136       -1.81746
C         -4.84359        2.79619       -2.37422
N         -4.52149        3.51028       -3.62997
C         -5.65818        1.50389       -2.65407
C         -4.94948        0.51863       -3.55514
C         -5.04407        0.61724       -4.95171
C         -4.30205       -0.22272       -5.78532
C         -3.44198       -1.19676       -5.25539
C         -3.37287       -1.31484       -3.85746
C         -4.11641       -0.47995       -3.02477
C         -2.65985       -2.12166       -6.15058
C         -3.29705        4.50154       -6.10091
C         -3.09807        6.00572       -5.63258
C         -1.64022        6.53795       -5.31664
C         -0.49885        6.55936       -6.41227
C         -0.65367        7.36171       -7.76830
C         -0.89139        8.92515       -7.78997
C          0.14410        9.92948       -7.13864
C          1.63755        9.91498       -7.63713
F          1.69667        9.97728       -8.97773
F          2.26347       10.98476       -7.12082
F          2.27404        8.80515       -7.21963
F         -0.35067       11.16488       -7.40139
F          0.14945        9.74275       -5.79365
F         -1.00588        9.24633       -9.10218
F         -2.08528        9.16993       -7.18560
F          0.47747        7.10414       -8.47236
F         -1.70191        6.81577       -8.44292
F          0.60760        7.00204       -5.77853
F         -0.28667        5.26071       -6.78461
F         -1.79860        7.79202       -4.83909
F         -1.15454        5.75896       -4.30366
F         -3.68147        6.79702       -6.55541
F         -3.77942        6.14962       -4.45635
F         -2.81879        4.37922       -7.34918
F         -4.66901        4.32822       -6.19151
C          4.62333        3.56744       -2.56093
C          5.75343        4.25910       -3.33176
C          6.39569        5.38558       -2.51451
C          7.53899        6.08276       -3.25598
H          4.48433       -2.90471       -0.82817
H          2.94342       -2.03209       -0.92749
H          4.23810       -1.43127        0.12688
H          4.38966       -1.57923       -2.95634
H          5.68028       -0.99094       -1.91338
H          4.18243        0.87438       -1.11095
H          2.88560        0.27787       -2.15213
H          4.38172        0.63014       -4.18053
H          5.62551        1.28786       -3.12656
H          0.59114        1.25221       -6.60292
H          1.12902        2.94622       -6.34971
H         -0.17291        3.19865       -4.37285
H         -0.56915        1.44124       -4.29617
H         -2.20995        1.58703       -6.00852
H         -1.40059        2.96651       -6.77142
H         -1.59091        2.54233       -3.03422
H         -3.11685        3.33833       -1.11097
H         -3.32103        1.57305       -1.33354
H         -5.41660        3.45801       -1.71251
H         -5.23667        3.73654       -4.31274
H         -6.62681        1.79946       -3.08665
H         -5.88275        1.05010       -1.67662
H         -5.71868        1.34921       -5.40273
H         -4.40745       -0.13094       -6.86862
H         -2.73733       -2.08469       -3.41531
H         -4.05821       -0.61885       -1.94261
H         -3.18343       -3.08281       -6.26940
H         -1.66860       -2.34514       -5.73381
H         -2.52648       -1.69894       -7.15462
H          5.01094        3.09757       -1.64388
H          3.85680        4.29978       -2.27496
H          5.34270        4.66534       -4.26934
H          6.52093        3.51905       -3.61422
H          6.76909        4.97999       -1.55863
H          5.62092        6.12422       -2.24976
H          8.34464        5.37664       -3.50500
H          7.97735        6.88529       -2.64791
H          7.18864        6.53161       -4.19685
