37

C          1.14938        0.12362       -0.03337
C          2.66783        0.28572       -0.12990
C          3.21590        0.01206       -1.53645
C          4.73784        0.18501       -1.62685
C          5.27545       -0.10030       -3.01705
O          6.71260        0.07468       -2.99388
C          7.30779       -0.12507       -4.25762
C          8.79213       -0.00709       -4.10994
N          9.63619       -0.87858       -4.62003
N         10.85966       -0.40130       -4.28599
C         10.79704        0.72285       -3.56475
N          9.47509        1.00422       -3.44455
C          8.89228        2.17802       -2.75057
C          8.98098        3.49318       -3.54250
C          8.15686        3.61109       -4.81045
Br         9.00560        2.65682       -6.32370
Br         8.28901        4.85519       -2.28952
I         12.40058        1.74017       -2.77223
H          0.79257        0.31688        0.98714
H          0.83706       -0.89525       -0.30600
H          0.62802        0.82120       -0.70503
H          3.15856       -0.39362        0.58688
H          2.95119        1.30665        0.17700
H          2.72186        0.68588       -2.25780
H          2.94204       -1.01318       -1.83966
H          5.23521       -0.48825       -0.91036
H          5.01389        1.21366       -1.34119
H          4.83847        0.58643       -3.76663
H          5.04766       -1.13505       -3.33191
H          6.95332        0.61207       -5.00761
H          7.10859       -1.13118       -4.67023
H         11.69720       -0.91118       -4.56098
H          9.42854        2.28589       -1.80015
H          7.85172        1.90986       -2.52992
H         10.02028        3.78886       -3.72790
H          8.10076        4.64992       -5.14432
H          7.14657        3.20082       -4.70181
