44

F          2.17797       -0.95659        0.04135
C          3.45937       -0.56361       -0.35329
C          3.36701        0.79357       -1.04467
C          4.72532        1.24397       -1.61181
C          4.85138        2.66616       -2.22615
C          3.67761        3.06106       -3.12472
N          2.47086        3.46019       -2.29049
C          2.75007        4.58718       -1.32414
C          3.92028        4.22063       -0.40925
C          5.19597        3.79784       -1.21357
C          5.90704        4.98355       -1.88440
C          4.16803        5.42153        0.49536
O          3.78609        6.53949        0.23705
C          4.96027        5.19454        1.83023
C          4.07708        5.22376        3.13398
C          2.88333        4.20472        3.20451
C          3.27887        2.69326        3.13832
O          3.37792        2.12370        2.07715
O          3.49735        2.09975        4.30939
F          2.22519        4.44808        4.37736
F          2.03138        4.47443        2.17147
F          4.89412        4.96095        4.19206
F          3.56218        6.46478        3.27195
F          5.62559        3.99496        1.80849
F          5.87809        6.18279        1.94835
H          3.85740       -1.33831       -1.02798
H          4.08736       -0.50370        0.54885
H          2.97335        1.49133       -0.28801
H          2.62015        0.67968       -1.85331
H          5.01865        0.52100       -2.38885
H          5.48891        1.16074       -0.82278
H          5.71463        2.61732       -2.90906
H          3.35449        2.23849       -3.77629
H          3.91337        3.92974       -3.75298
H          2.15877        2.62879       -1.76211
H          1.69649        3.72817       -2.91084
H          1.83014        4.76193       -0.75238
H          2.95811        5.48472       -1.91942
H          3.63835        3.38125        0.24605
H          5.89319        3.35690       -0.48907
H          5.26883        5.54753       -2.58017
H          6.77843        4.62912       -2.45012
H          6.27536        5.70200       -1.14057
H          3.30835        2.70317        5.05581
