89

C         11.97573      -12.02837        1.16887
C         12.02937      -10.52054        0.91168
C         12.52227      -10.15521       -0.49331
C         12.56280       -8.64579       -0.74976
C         13.04079       -8.25893       -2.15351
C         13.04663       -6.74496       -2.38526
C         13.50183       -6.31667       -3.78440
C         13.46309       -4.79712       -3.97456
C         13.89394       -4.31662       -5.36393
C         13.81883       -2.79213       -5.50119
C         14.23950       -2.26737       -6.88017
C         14.14361       -0.75440       -6.94734
O         14.54930       -0.30384       -8.25739
C         14.51584        1.10233       -8.38456
C         14.97177        1.42198       -9.77429
N         15.35767        0.40730      -10.63105
C         15.74183        0.91516      -11.81586
N         15.60195        2.24572      -11.71138
C         15.12277        2.60510      -10.46047
C         14.93704        4.01707      -10.02162
C         16.23399        4.63997       -9.45946
C         16.02855        6.06174       -8.93065
C         17.30116        6.66197       -8.32488
C         17.09981        8.06493       -7.74319
C         18.36856        8.64268       -7.10890
C         18.17681       10.03515       -6.50006
C         19.44729       10.59291       -5.85156
C         19.26961       11.98339       -5.23237
C         20.54881       12.52349       -4.58846
C         16.21047        0.15836      -13.01351
C         16.65644        1.05610      -14.17049
O         16.57320        2.27472      -14.18322
O         17.13767        0.31161      -15.16215
C         17.58645        1.03078      -16.35117
H         11.61270      -12.25182        2.18152
H         12.97027      -12.48753        1.06462
H         11.30467      -12.53205        0.45707
H         12.68276      -10.04126        1.66050
H         11.02716      -10.08537        1.06596
H         11.87171      -10.63731       -1.24453
H         13.52906      -10.58192       -0.64942
H         13.21556       -8.16619        0.00104
H         11.55567       -8.22379       -0.58319
H         12.39482       -8.74307       -2.90706
H         14.05507       -8.66207       -2.32131
H         13.69535       -6.26488       -1.63134
H         12.03206       -6.34908       -2.20131
H         12.86179       -6.79931       -4.54383
H         14.52523       -6.68719       -3.97045
H         14.10517       -4.32080       -3.21271
H         12.43956       -4.43579       -3.77095
H         13.25661       -4.78764       -6.13250
H         14.92372       -4.65600       -5.57151
H         14.45352       -2.32922       -4.72576
H         12.78793       -2.46238       -5.28485
H         13.59941       -2.70610       -7.66289
H         15.27505       -2.57386       -7.10090
H         14.79827       -0.28403       -6.18988
H         13.10823       -0.41480       -6.75767
H         15.18125        1.59006       -7.64401
H         13.49521        1.50247       -8.21841
H         15.32497       -0.57189      -10.34972
H         15.85586        2.83714      -12.51511
H         14.15102        4.04120       -9.25146
H         14.55886        4.61992      -10.86223
H         17.00870        4.63824      -10.24458
H         16.61706        3.99483       -8.65107
H         15.22962        6.05347       -8.16871
H         15.66348        6.70973       -9.74605
H         18.09373        6.69316       -9.09281
H         17.67572        5.99134       -7.53144
H         16.29544        8.03330       -6.98738
H         16.74206        8.74399       -8.53669
H         19.17022        8.68309       -7.86725
H         18.72956        7.95153       -6.32671
H         17.36883        9.99668       -5.74821
H         17.82749       10.73212       -7.28208
H         20.25465       10.63101       -6.60437
H         19.79650        9.89127       -5.07312
H         18.46410       11.94536       -4.47945
H         18.92220       12.68512       -6.00957
H         20.90048       11.86256       -3.78221
H         20.39241       13.52065       -4.15488
H         21.36223       12.60619       -5.32478
H         15.40982       -0.50055      -13.38907
H         17.04545       -0.50850      -12.74718
H         17.93593        0.25194      -17.03280
H         18.39930        1.71691      -16.08725
H         16.75009        1.58940      -16.78675
