59

Br         2.33424        4.27421       -3.69691
C          4.17837        3.87706       -3.13765
C          4.34755        2.89344       -1.99572
C          3.79796        3.28435       -0.61530
N          2.34686        3.21855       -0.53251
C          1.53764        4.15541       -0.01805
N          0.29105        4.27237       -0.49435
C         -0.79448        5.00054        0.19592
O         -0.29407        5.67961        1.31720
C          1.01680        6.20020        1.06669
N          1.94424        5.03767        0.94308
C          2.62693        4.51053        2.14519
C          1.72542        3.65602        3.05352
O          1.57043        2.35831        2.41501
C          0.31322        1.84444        2.26411
O         -0.71125        2.46541        2.45318
C          0.38455        0.40487        1.80219
S          0.43982        0.27516       -0.02745
C          2.34924        3.44107        4.43638
O          1.34047        3.18245        5.43178
C          1.05967        1.87146        5.71779
O          1.53563        0.93010        5.11783
C          0.11027        1.77172        6.88597
S          1.06046        1.66711        8.44928
C          1.40946        7.19404        2.14742
C          0.76724        8.59439        2.02108
C         -0.73639        8.61413        2.32538
C          1.51265        9.56582        2.94708
Br         3.70545        1.09298       -2.48827
H          4.61160        4.84737       -2.86298
H          4.66578        3.50260       -4.04251
H          5.43138        2.74924       -1.87507
H          4.11048        4.31631       -0.39452
H          4.25501        2.61756        0.13302
H          1.90261        2.36981       -0.90056
H          0.09155        3.86445       -1.40460
H         -1.55145        4.29378        0.56595
H         -1.24360        5.69179       -0.54168
H          1.03239        6.69710        0.07917
H          3.01123        5.36907        2.70534
H          3.49650        3.91674        1.83614
H          0.73193        4.11566        3.16194
H         -0.49021       -0.13769        2.17456
H          1.29936       -0.07572        2.16636
H         -0.86052        0.59186       -0.23624
H          2.84903        4.35907        4.77471
H          3.06963        2.61082        4.40555
H         -0.53062        0.89185        6.76745
H         -0.50337        2.67538        6.97585
H          1.59070        0.44560        8.20243
H          2.50192        7.32291        2.08770
H          1.17923        6.77373        3.14034
H          0.91928        8.93512        0.98067
H         -0.93148        8.26056        3.34936
H         -1.31677        7.98435        1.64077
H         -1.12169        9.63982        2.25030
H          1.40888        9.26260        4.00029
H          1.10331       10.58038        2.85562
H          2.58567        9.61388        2.71211
