86

C          2.41567        1.98824       -2.63802
C          3.68832        1.30418       -3.14401
C          3.99537       -0.01679       -2.42849
C          5.27228       -0.69850       -2.93010
C          5.57063       -2.03595       -2.24263
C          6.84546       -2.70136       -2.77455
C          7.12538       -4.05038       -2.13368
O          8.31725       -4.59133       -2.73249
C          8.58238       -5.91973       -2.35704
N          9.64050       -6.44148       -3.21731
C         11.03307       -6.09359       -2.90206
O         11.47058       -4.96536       -3.63449
C         11.47386       -5.20096       -5.04361
N         10.34532       -6.07949       -5.40116
C          9.40674       -6.51818       -4.56603
N          8.27357       -7.05401       -5.07176
C          7.66009       -8.29642       -4.56619
C          6.48581       -8.72122       -5.44630
C          6.78724       -8.92780       -6.94139
S          8.17272      -10.05840       -7.28210
C          9.44217       -8.99942       -7.95106
S          9.25446       -7.34857       -8.23913
N         10.56822       -9.69962       -8.25428
C         10.69898      -11.09306       -7.86801
C         10.54958      -12.08920       -8.83722
C         10.69781      -13.42672       -8.46767
C         11.00322      -13.76193       -7.14521
C         11.16544      -12.75803       -6.18541
C         11.01468      -11.41849       -6.54359
C         11.67273       -9.16088       -9.01656
C         12.97263       -9.34476       -8.53283
C         14.05864       -8.88234       -9.27715
C         13.85131       -8.24277      -10.50126
C         12.55028       -8.08063      -10.98714
C         11.45787       -8.54407      -10.25451
Si        13.15923       -5.84451       -5.80426
C         13.42335       -7.64030       -5.29377
C         12.96582       -5.67994       -7.66652
C         14.49245       -4.71479       -5.12800
H          2.22369        2.92739       -3.17449
H          2.48973        2.22761       -1.56685
H          1.53417        1.34366       -2.77192
H          4.54627        1.98770       -3.02634
H          3.60027        1.11587       -4.22772
H          3.14002       -0.70460       -2.55143
H          4.07996        0.16707       -1.34285
H          6.12984       -0.01763       -2.78862
H          5.19384       -0.86187       -4.01958
H          4.71175       -2.71564       -2.38235
H          5.65958       -1.87739       -1.15405
H          7.71291       -2.04316       -2.60728
H          6.76500       -2.84523       -3.86434
H          6.28305       -4.75034       -2.30281
H          7.26546       -3.95234       -1.04048
H          7.67417       -6.54087       -2.45309
H          8.94276       -6.00162       -1.31472
H         11.66028       -6.97685       -3.10707
H         11.09592       -5.82900       -1.84185
H         11.27515       -4.20594       -5.48285
H         10.25834       -6.38684       -6.38473
H          8.25001       -6.97673       -6.09997
H          7.29373       -8.14968       -3.54215
H          8.41833       -9.09722       -4.53605
H          5.67860       -7.97465       -5.37464
H          6.08606       -9.65132       -5.01644
H          7.01722       -7.99012       -7.47311
H          5.91637       -9.37946       -7.43480
H         10.31494      -11.81269       -9.86536
H         10.57305      -14.21063       -9.21503
H         11.12118      -14.80821       -6.86269
H         11.41478      -13.01896       -5.15651
H         11.13600      -10.62371       -5.80617
H         13.13497       -9.86128       -7.58787
H         15.07086       -9.03102       -8.89975
H         14.70037       -7.88451      -11.08363
H         12.38142       -7.60104      -11.95159
H         10.44698       -8.42931      -10.64159
H         12.55183       -8.25850       -5.55059
H         13.61974       -7.73958       -4.21758
H         14.29127       -8.05464       -5.82584
H         12.14464       -6.28861       -8.06970
H         13.88598       -6.01004       -8.16845
H         12.79023       -4.63263       -7.94996
H         14.54135       -4.76617       -4.03235
H         14.30820       -3.66922       -5.41143
H         15.47525       -5.00115       -5.52745
