119

C          2.82265       -1.64092       -0.09083
C          3.49864       -0.67708       -1.06849
C          4.65124        0.11613       -0.44348
C          5.28511        1.13217       -1.39805
C          6.28736        2.07777       -0.72787
C          6.72245        3.23862       -1.62786
C          7.47335        4.34098       -0.87664
C          7.85032        5.51084       -1.80177
N          8.18804        6.74400       -1.08543
C          7.25905        7.67222       -0.74548
S          7.57985        9.08297        0.07537
S          5.59757        7.21033       -1.28526
C          4.56803        8.55718       -0.63936
C          3.29434        8.65728       -1.48583
C          2.24343        9.54346       -0.79679
C          0.80535        9.54356       -1.39952
C         -0.15135       10.31965       -0.45706
C         -0.42885        9.60166        0.87392
C         -0.85614        8.14817        0.68157
N          0.15187        7.44540       -0.18176
C          0.26814        8.10899       -1.53389
C          0.01878        5.95897       -0.27756
C          1.42132        5.43474        0.13815
O          2.17823        6.26918        0.67612
N          1.75598        4.16107       -0.08775
C          0.86369        3.17476       -0.71763
C          1.10938        3.01428       -2.21843
C          3.11167        3.71567        0.30305
C          3.17746        3.23985        1.75323
C          0.87094       10.22957       -2.79427
C         -0.39864       10.30268       -3.65664
C         -0.60338        9.07556       -4.55874
O          0.06999        8.05081       -4.43615
N         -1.60222        9.23283       -5.48259
C         -2.10017        8.32274       -6.44625
C         -3.20528        8.74494       -7.20452
C         -3.75509        7.90992       -8.17384
C         -3.21103        6.64229       -8.39914
C         -2.11101        6.22738       -7.64645
C         -1.54592        7.05236       -6.67149
C          9.60281        6.92719       -0.72538
C         10.42087        7.60511       -1.83016
C         11.89197        7.77313       -1.43653
C         12.75606        8.35163       -2.56218
C         14.22648        8.53741       -2.17313
C         15.11162        9.01505       -3.32893
C         16.58217        9.20651       -2.94177
C         17.46745        9.64297       -4.11204
H          2.00403       -2.19546       -0.56956
H          2.40294       -1.10656        0.77527
H          3.53798       -2.38033        0.29747
H          2.74943        0.03217       -1.46610
H          3.87053       -1.23517       -1.94362
H          5.42368       -0.58115       -0.07736
H          4.28122        0.64063        0.45615
H          4.48457        1.73668       -1.86548
H          5.77061        0.60453       -2.23632
H          7.16993        1.51020       -0.38956
H          5.83639        2.49170        0.19092
H          5.82556        3.68732       -2.09172
H          7.33390        2.85645       -2.46308
H          8.37767        3.93625       -0.39488
H          6.83258        4.72678       -0.06800
H          7.02534        5.72316       -2.49917
H          8.71410        5.24585       -2.42911
H          5.17679        9.47338       -0.65631
H          4.32735        8.33149        0.40933
H          2.89429        7.64292       -1.64055
H          3.54655        9.03998       -2.48523
H          2.59465       10.58790       -0.78609
H          2.20573        9.25329        0.26650
H         -1.11113       10.48726       -0.97179
H          0.26647       11.31625       -0.25221
H         -1.22518       10.12109        1.42520
H          0.45724        9.63011        1.52627
H         -1.83192        8.06531        0.17929
H         -0.90536        7.61120        1.63799
H          1.10770        7.48446        0.30415
H         -0.73625        8.08412       -1.97686
H          0.91464        7.48632       -2.15947
H         -0.27888        5.67613       -1.29313
H         -0.74685        5.60993        0.42858
H         -0.17998        3.45278       -0.51695
H          1.02447        2.21966       -0.19666
H          0.93384        3.95392       -2.76046
H          0.43509        2.25077       -2.62815
H          2.13925        2.69342       -2.42310
H          3.79924        4.55443        0.13253
H          3.38676        2.91041       -0.38862
H          2.92895        4.05350        2.44598
H          4.19490        2.89877        1.98423
H          2.49530        2.39786        1.93568
H          1.64983        9.73671       -3.39198
H          1.22133       11.25614       -2.60948
H         -0.33927       11.19767       -4.29544
H         -1.30812       10.44608       -3.04892
H         -2.06849       10.13587       -5.48243
H         -3.63504        9.73548       -7.03482
H         -4.61046        8.25428       -8.75556
H         -3.63815        5.98724       -9.15825
H         -1.67386        5.24336       -7.82073
H         -0.68374        6.72915       -6.09584
H         10.01238        5.92985       -0.50016
H          9.63382        7.52634        0.19427
H          9.97268        8.58729       -2.04665
H         10.35192        7.01247       -2.75846
H         12.30636        6.79612       -1.12972
H         11.95815        8.42327       -0.54727
H         12.33671        9.32001       -2.88590
H         12.69439        7.68678       -3.44190
H         14.62329        7.58234       -1.78537
H         14.29577        9.25367       -1.33587
H         14.71357        9.96478       -3.72837
H         15.04640        8.28961       -4.15936
H         16.97025        8.26404       -2.51912
H         16.64965        9.94992       -2.12940
H         17.45246        8.89931       -4.92285
H         18.51300        9.77252       -3.80044
H         17.12697       10.59937       -4.53653
