73

C          3.54691       -0.51348        3.05446
C          3.96812       -0.16551        1.97627
C          4.48984        0.28043        0.69349
C          4.93044        1.76029        0.73436
C          5.47537        2.19666       -0.62388
N          6.22255        3.50758       -0.52621
C          5.38063        4.72351       -0.17659
C          6.35921        5.87553       -0.32627
C          7.20634        5.50494       -1.55759
C          7.12812        3.95377       -1.71492
C          6.56706        3.50887       -3.09672
C          5.13913        3.89352       -3.54965
O          4.97992        5.29480       -3.36121
C          3.63830        5.82281       -3.46945
C          3.56020        6.99842       -2.53024
C          4.33584        8.14284       -2.77359
C          4.34841        9.19666       -1.85842
C          3.57827        9.12304       -0.69205
C          2.78939        7.99553       -0.45014
C          2.78325        6.93820       -1.36553
C          4.93648        3.45957       -5.00357
C          8.55097        3.27740       -1.59013
C          9.55770        3.48456       -0.35343
C          9.31170        2.87942        1.09289
C          9.14992        1.33125        1.37703
C         10.27426        0.28290        0.99741
C         11.73454        0.37906        1.60122
C         11.99298        0.30980        3.16167
C         11.49357       -0.95163        3.96127
F         11.87393       -2.08699        3.35422
F         12.02604       -0.91003        5.19121
F         10.15080       -0.94251        4.07503
F         13.33953        0.36457        3.29808
F         11.45263        1.41439        3.74105
F         12.41953       -0.63586        1.02309
F         12.27273        1.55559        1.18161
F          9.75854       -0.92639        1.33166
F         10.41870        0.32294       -0.35211
F          8.89147        1.23337        2.69964
F          8.02644        0.92246        0.70635
F         10.29337        3.35370        1.87277
F          8.12095        3.44177        1.55627
F         10.75087        3.01186       -0.77096
F          9.68521        4.82463       -0.13351
F          8.44451        1.92044       -1.75950
F          9.27119        3.76437       -2.64251
H          3.17003       -0.83867        4.00192
H          3.72313        0.13589       -0.08699
H          5.34782       -0.35154        0.40716
H          5.70097        1.87097        1.51248
H          4.07518        2.38101        1.03534
H          4.67122        2.32326       -1.35604
H          6.18537        1.45667       -1.01067
H          6.85103        3.39637        0.28373
H          4.97777        4.59107        0.83324
H          4.56082        4.77811       -0.89917
H          6.98016        5.97153        0.57613
H          5.82604        6.82240       -0.46951
H          8.23759        5.84964       -1.46090
H          6.78279        5.95714       -2.45552
H          6.65580        2.41942       -3.20254
H          7.26270        3.93813       -3.83135
H          4.37941        3.37344       -2.93092
H          2.90350        5.04898       -3.18452
H          3.43893        6.11610       -4.51366
H          4.93422        8.20560       -3.68457
H          4.95115       10.08332       -2.05867
H          3.58235        9.95081        0.01776
H          2.17125        7.94295        0.44697
H          2.15505        6.06329       -1.17943
H          5.63682        3.99033       -5.66310
H          3.91413        3.67805       -5.33709
H          5.09653        2.37867       -5.12047
