80

C         11.91937        4.53558      -15.21265
C         11.57706        3.14168      -14.68038
C         12.07119        2.89985      -13.24949
C         11.72869        1.50967      -12.70467
C         12.18589        1.28647      -11.25952
C         11.84528       -0.10319      -10.71308
C         12.27319       -0.31000       -9.25682
C         12.03467       -1.73291       -8.74208
C         12.57158       -1.96586       -7.32769
C         12.34989       -3.39076       -6.81105
C         12.93015       -3.61596       -5.41012
C         12.68075       -5.01006       -4.81249
C         13.18932       -6.19368       -5.65848
C         14.68362       -6.10827       -5.99909
C         15.19268       -7.22699       -6.90900
N         14.85092       -8.60163       -6.29097
C         14.75058       -9.70074       -7.30667
C         15.76234       -8.92929       -5.12244
C         17.22624       -8.73539       -5.50529
O         17.45773       -7.42880       -6.01002
C         16.70417       -7.20432       -7.20826
C         17.18636       -5.89788       -7.83169
C         16.55310       -5.66559       -9.21240
O         15.70894       -6.44256       -9.67623
N         16.99524       -4.57291       -9.87717
C         16.51832       -4.21093      -11.21519
C         15.28439       -3.29638      -11.21074
C         15.45315       -1.95631      -10.47993
C         16.57658       -1.06231      -11.01365
H         11.54729        4.67895      -16.23641
H         13.00697        4.70200      -15.22840
H         11.47510        5.32260      -14.58508
H         12.00672        2.37527      -15.34800
H         10.48452        2.99192      -14.71490
H         11.64054        3.66804      -12.58294
H         13.16512        3.04924      -13.21133
H         12.18064        0.73963      -13.35530
H         10.63743        1.35261      -12.76750
H         11.73045        2.05518      -10.61095
H         13.27726        1.44553      -11.19143
H         12.32496       -0.87069      -11.34810
H         10.75956       -0.27991      -10.80464
H         11.73954        0.40860       -8.61146
H         13.34445       -0.06152       -9.15224
H         12.50759       -2.45482       -9.43206
H         10.95438       -1.95774       -8.76953
H         12.10337       -1.24872       -6.63172
H         13.65270       -1.73773       -7.31040
H         12.79636       -4.09876       -7.53305
H         11.26922       -3.61656       -6.80132
H         12.49732       -2.87528       -4.71906
H         14.01216       -3.39693       -5.42160
H         11.60016       -5.15016       -4.65292
H         13.14480       -5.05975       -3.81397
H         12.60701       -6.26504       -6.59231
H         12.95930       -7.11088       -5.07887
H         15.29264       -6.03134       -5.08459
H         14.85730       -5.17415       -6.55101
H         14.66556       -7.20456       -7.87269
H         13.90713       -8.47254       -5.89727
H         15.73006       -9.88946       -7.75441
H         14.04982       -9.38783       -8.08759
H         14.38818      -10.60745       -6.80958
H         15.55213       -9.96038       -4.80928
H         15.48539       -8.24716       -4.30901
H         17.55414       -9.49719       -6.23828
H         17.84390       -8.85089       -4.60528
H         16.92567       -8.01356       -7.93046
H         18.28030       -5.96548       -7.92768
H         16.98690       -5.04580       -7.16451
H         17.67642       -3.97005       -9.42803
H         16.28333       -5.14754      -11.73661
H         17.35869       -3.73790      -11.74159
H         14.43961       -3.85094      -10.77336
H         15.01911       -3.10984      -12.26452
H         15.59874       -2.13770       -9.40058
H         14.50211       -1.41267      -10.55672
H         17.57545       -1.50188      -10.86907
H         16.57882       -0.08933      -10.50465
H         16.45780       -0.87153      -12.09046
