106

C          1.54181       -0.48416       -0.40170
C          3.04656       -0.75409       -0.32234
C          3.41136       -2.23364       -0.49057
C          4.91817       -2.50494       -0.43366
C          5.29104       -3.97717       -0.63768
C          6.80059       -4.23491       -0.59159
C          7.19082       -5.68726       -0.88689
C          8.70627       -5.91220       -0.90433
C          9.13543       -7.31898       -1.33599
C         10.65726       -7.44543       -1.45457
C         11.11879       -8.79639       -1.97383
O         12.56495       -8.79235       -1.91928
C         13.17888       -9.83554       -2.65646
C         14.64663       -9.57694       -2.56634
N         15.44620      -10.00434       -1.57295
C         16.69760       -9.44091       -1.68343
C         16.67633       -8.63239       -2.79263
N         15.39005       -8.74399       -3.32706
C         14.89988       -8.03106       -4.52075
C         14.11179       -6.76208       -4.17631
C         13.62271       -6.09602       -5.47120
S         12.09604       -5.14004       -5.29603
C         10.84081       -6.40487       -5.51426
S         11.20912       -8.02813       -5.71557
N          9.58323       -5.90656       -5.53058
C          9.25076       -4.47667       -5.44620
C          8.05972       -4.27288       -4.50685
O          6.93457       -5.04650       -4.90121
C          7.26204       -6.43426       -4.91017
C          8.41916       -6.74522       -5.85408
C         17.74558       -7.77241       -3.38006
C         19.00409       -7.68793       -2.50317
C         20.02439       -6.71484       -3.09889
S         21.58632       -6.65894       -2.18312
C         22.48478       -8.02132       -2.93945
S         21.86864       -9.00494       -4.12832
N         23.74808       -8.12759       -2.43047
C         24.19086       -7.36191       -1.28719
C         25.13171       -6.34041       -1.45983
C         25.58337       -5.62797       -0.34833
C         25.10145       -5.93389        0.92828
C         24.16959       -6.96196        1.09640
C         23.71611       -7.68291       -0.00906
C         24.73394       -8.99882       -3.03009
C         25.21692      -10.08850       -2.30179
C         26.21144      -10.89834       -2.85482
C         26.72161      -10.61585       -4.12446
C         26.23726       -9.51832       -4.84360
C         25.24384       -8.70496       -4.29911
H          1.31675        0.58368       -0.27427
H          0.99475       -1.03343        0.37930
H          1.13003       -0.79656       -1.37326
H          3.43525       -0.39295        0.64525
H          3.56788       -0.16318       -1.09488
H          3.01153       -2.59881       -1.45338
H          2.90201       -2.82609        0.28994
H          5.31558       -2.15719        0.53630
H          5.42537       -1.89431       -1.20203
H          4.89572       -4.32022       -1.61011
H          4.78917       -4.59431        0.12774
H          7.19593       -3.94025        0.39614
H          7.29971       -3.57263       -1.32202
H          6.76222       -5.97997       -1.86155
H          6.72513       -6.35682       -0.14370
H          9.12346       -5.69172        0.09327
H          9.17341       -5.17699       -1.58467
H          8.67233       -7.56242       -2.30776
H          8.74728       -8.06387       -0.62094
H         11.12631       -7.26337       -0.47392
H         11.03780       -6.66652       -2.13625
H         10.79326       -8.94835       -3.01824
H         10.73333       -9.62868       -1.35561
H         12.84714       -9.83691       -3.71159
H         12.95652      -10.83602       -2.23529
H         15.13811      -10.62306       -0.82871
H         17.49573       -9.66162       -0.98661
H         14.25543       -8.71932       -5.08372
H         15.77656       -7.81634       -5.14424
H         14.73041       -6.06731       -3.58910
H         13.25659       -7.04303       -3.54966
H         13.41934       -6.84624       -6.24986
H         14.35186       -5.37190       -5.86185
H          9.00920       -4.10612       -6.45708
H         10.10872       -3.90849       -5.06743
H          7.74307       -3.22170       -4.52878
H          8.36042       -4.52990       -3.47390
H          6.35968       -6.96660       -5.23760
H          7.51511       -6.76741       -3.88601
H          8.12470       -6.53938       -6.89764
H          8.72312       -7.79556       -5.77919
H         17.33854       -6.76020       -3.54728
H         18.02727       -8.16048       -4.37460
H         19.47357       -8.68083       -2.43736
H         18.73831       -7.36613       -1.48428
H         19.65625       -5.67766       -3.07591
H         20.27015       -6.99174       -4.13565
H         25.50218       -6.11283       -2.45953
H         26.31453       -4.82976       -0.47991
H         25.45839       -5.37423        1.79326
H         23.80217       -7.21106        2.09242
H         22.99642       -8.49364        0.10725
H         24.81558      -10.29849       -1.31019
H         26.58771      -11.75182       -2.29020
H         27.49983      -11.24763       -4.55339
H         26.63769       -9.29149       -5.83218
H         24.85557       -7.84972       -4.85227
