78

C          1.36652        1.58819       -1.29917
C          2.49004        1.18377       -0.34955
S          3.24926       -0.36253       -1.00111
C          4.38356       -0.69435        0.23649
N          4.63771       -0.03868        1.36578
N          5.62953       -0.72489        1.98886
C          5.94640       -1.76781        1.24505
O          5.17516       -1.79805        0.09981
C          6.93832       -2.78640        1.50631
C          6.97239       -4.01458        0.76223
C          7.97315       -4.92836        1.04718
N          8.90043       -4.67828        1.99705
C          8.88513       -3.54341        2.73109
C          7.91704       -2.57190        2.53644
C          8.00093       -1.37610        3.45315
C          7.05167       -1.51895        4.66469
C          7.32260       -0.52188        5.79934
C          8.13200       -1.05645        7.04441
C          9.61611       -1.57361        6.88793
C         10.80409       -0.63109        6.44638
C         11.18450        0.66667        7.26613
C         11.55922        0.51430        8.78824
F         12.48001       -0.45144        8.95696
F         12.06539        1.68117        9.21455
F         10.47405        0.21980        9.52342
F         12.27719        1.17075        6.63525
F         10.17313        1.56107        7.16162
F         11.89925       -1.43366        6.40467
F         10.55451       -0.20908        5.17162
F          9.96232       -2.13271        8.06876
F          9.59165       -2.58156        5.94407
F          8.12195       -0.10175        8.00165
F          7.43982       -2.14068        7.51164
F          7.93142        0.61501        5.34027
F          6.11858       -0.14302        6.33444
C          5.99017       -4.42751       -0.31028
C          6.39539       -3.91961       -1.71115
C          5.33245       -4.28585       -2.73907
C          5.53005       -3.71243       -4.19220
C          6.88924       -3.94746       -4.96421
C          7.45822       -5.39688       -5.24027
C          6.64583       -6.48049       -6.05763
C          6.18912       -6.23003       -7.55160
C          7.23282       -5.92444       -8.70057
C          8.37558       -6.96828       -8.98884
F          7.87704       -8.20970       -9.10933
F          8.97937       -6.62513      -10.13804
F          9.29485       -6.95883       -8.00507
F          6.49196       -5.82367       -9.83282
F          7.81627       -4.72282       -8.45756
F          5.51220       -7.35209       -7.90301
F          5.31615       -5.18883       -7.54728
F          7.41902       -7.59823       -6.04318
F          5.50877       -6.74578       -5.36454
F          8.65208       -5.21173       -5.85101
F          7.70090       -5.96638       -4.01845
F          6.78019       -3.29913       -6.14437
F          7.86767       -3.32572       -4.23090
F          4.51024       -4.15273       -4.96254
F          5.42833       -2.35135       -4.08320
F          5.19154       -5.64469       -2.81696
F          4.11265       -3.78853       -2.33404
H          0.90754        2.51340       -0.92672
H          0.58111        0.82279       -1.35311
H          1.73562        1.78417       -2.31462
H          2.12600        0.97093        0.66289
H          3.28136        1.94121       -0.29138
H          8.05353       -5.88212        0.52859
H          9.62847       -5.36980        2.17307
H          9.66882       -3.43617        3.47870
H          7.74646       -0.45717        2.91264
H          9.03941       -1.28758        3.78807
H          7.08224       -2.53462        5.07957
H          6.02259       -1.32478        4.33832
H          4.98174       -4.08061       -0.06346
H          5.94925       -5.52515       -0.33066
H          7.35000       -4.36594       -2.01738
H          6.51935       -2.82986       -1.72064
