117

C         19.29478        0.94452       11.43158
C         18.91078        0.52742       10.00954
C         19.10286        1.64190        8.97566
C         18.71443        1.23778        7.55012
C         18.92786        2.34905        6.51813
C         18.54464        1.95209        5.08913
C         18.78203        3.06499        4.06415
C         18.41478        2.68077        2.62756
C         18.69250        3.79637        1.61563
C         18.34764        3.43449        0.16744
C         18.68422        4.55361       -0.82244
C         18.38303        4.21769       -2.28641
C         18.77254        5.34827       -3.24341
C         18.53898        5.03733       -4.72501
C         18.99421        6.17697       -5.64130
C         18.84087        5.89142       -7.13845
C         19.39710        7.02560       -8.00634
C         19.33090        6.74993       -9.51358
C         19.89868        7.88400      -10.38579
C         21.40938        8.02793      -10.17379
N         22.04362        9.08723      -10.97545
N         22.86918        8.81147      -11.95983
N         23.32581        9.94169      -12.45682
C         22.78374       10.95254      -11.75360
N         21.94495       10.43586      -10.82337
C         21.04642       11.15060       -9.88860
C         21.24529       10.87909       -8.39503
C         22.66555       11.07828       -7.85696
S         23.28698       12.77214       -8.07024
C         24.77638       12.50655       -9.06342
S         25.31343       11.02605       -9.59777
N         25.39734       13.68667       -9.32342
C         24.88666       14.95736       -8.84200
C         25.34075       15.46339       -7.61942
C         24.87977       16.70522       -7.18032
C         23.98198       17.44013       -7.96066
C         23.54141       16.93623       -9.18779
C         23.99397       15.69301       -9.62948
C         26.66405       13.73720      -10.02856
C         26.70937       14.27058      -11.31904
C         27.93592       14.37073      -11.97926
C         29.10706       13.94355      -11.34900
C         29.05308       13.41865      -10.05400
C         27.83210       13.31603       -9.38714
C         23.05572       12.38638      -12.00703
C         22.22613       12.98869      -13.16081
C         22.61315       14.46192      -13.32881
C         21.87578       15.15668      -14.47452
S         22.35329       16.90675      -14.45912
O         21.85971       17.51037      -13.24059
O         23.74127       17.02236      -14.84215
Cl        21.20178       17.62845      -16.02610
H         19.15623        0.12108       12.14576
H         18.68333        1.79102       11.77834
H         20.34860        1.25660       11.48538
H         17.85891        0.19492        9.99369
H         19.50769       -0.35058        9.70918
H         20.15777        1.96957        8.98728
H         18.51207        2.52487        9.27837
H         17.65597        0.92295        7.53522
H         19.29648        0.34764        7.25217
H         19.98696        2.66219        6.53599
H         18.34730        3.24006        6.81642
H         17.48236        1.65127        5.06466
H         19.11779        1.05559        4.79328
H         19.84399        3.36698        4.09748
H         18.20714        3.96059        4.35938
H         17.34795        2.39960        2.58318
H         18.97724        1.77622        2.33633
H         19.75964        4.07608        1.67237
H         18.13059        4.70132        1.90754
H         17.27437        3.18599        0.09410
H         18.89062        2.51686       -0.11988
H         19.75500        4.80768       -0.72601
H         18.13358        5.46807       -0.53877
H         17.30961        3.98721       -2.40170
H         18.92258        3.29672       -2.56934
H         19.83972        5.59156       -3.09321
H         18.21624        6.26277       -2.97121
H         17.46993        4.82497       -4.89832
H         19.07996        4.11364       -4.99518
H         20.05537        6.40051       -5.42816
H         18.43679        7.09559       -5.38569
H         17.77853        5.72319       -7.38385
H         19.36478        4.95296       -7.38917
H         20.44232        7.20209       -7.69357
H         18.84987        7.95942       -7.78297
H         18.28387        6.58887       -9.81182
H         19.85793        5.80944       -9.74737
H         19.37852        8.82254      -10.13743
H         19.71104        7.68137      -11.45044
H         21.93912        7.12453      -10.50198
H         21.67668        8.20976       -9.12593
H         20.01542       10.92837      -10.19416
H         21.24006       12.20971      -10.09783
H         20.89990        9.86987       -8.12676
H         20.54243       11.56274       -7.89310
H         23.41165       10.42999       -8.35689
H         22.68272       10.85709       -6.78201
H         26.04748       14.88439       -7.02485
H         25.22849       17.10364       -6.22733
H         23.63258       18.41340       -7.61546
H         22.85552       17.51301       -9.80898
H         23.66858       15.29600      -10.59009
H         25.79605       14.62205      -11.79962
H         27.97511       14.79053      -12.98480
H         30.06403       14.02507      -11.86454
H         29.96656       13.09067       -9.55758
H         27.77956       12.90538       -8.37887
H         24.12754       12.44852      -12.24419
H         22.90318       12.96090      -11.08241
H         21.14897       12.89883      -12.94576
H         22.41927       12.42383      -14.08515
H         23.69796       14.53687      -13.50111
H         22.39656       14.99995      -12.39295
H         20.78398       15.14073      -14.35582
H         22.14982       14.76895      -15.46460
