168

C          6.56986        1.00231        2.47617
C          6.48702        0.64548        0.98990
C          6.83177       -0.81855        0.69247
C          6.71885       -1.17910       -0.79180
C          7.05558       -2.63985       -1.11095
C          6.87897       -2.97601       -2.59477
C          7.18272       -4.43391       -2.95508
C          6.95947       -4.67650       -4.45376
N          7.20496       -6.05136       -4.91058
C          6.23543       -6.98858       -5.01582
S          6.45489       -8.51115       -5.66493
S          4.65454       -6.43398       -4.33993
C          3.56280       -7.80365       -4.79155
C          3.03660       -7.68117       -6.22277
C          2.21560       -8.90388       -6.64181
N          1.81874       -8.75349       -8.04314
C          0.63960       -9.03628       -8.62293
N         -0.19896       -9.98568       -8.14972
C         -1.55710      -10.02991       -8.72200
C         -2.64543      -10.57460       -7.80280
C         -4.02547      -10.17306       -8.35040
S         -4.40072       -8.40113       -8.16102
C         -4.10600       -7.70621       -9.79287
S         -3.51846       -8.55242      -11.10483
N         -4.45298       -6.38704       -9.83272
C         -4.83726       -5.65052       -8.64753
C         -6.17690       -5.29038       -8.46500
C         -6.53986       -4.54587       -7.34230
C         -5.57045       -4.15873       -6.41185
C         -4.23209       -4.51256       -6.60463
C         -3.86007       -5.25562       -7.72566
C         -4.51886       -5.64683      -11.07380
C         -3.69136       -4.53451      -11.24870
C         -3.79922       -3.77378      -12.41522
C         -4.73155       -4.12125      -13.39586
C         -5.56212       -5.23097      -13.20824
C         -5.46181       -5.99574      -12.04639
C          0.37508      -11.25423       -7.64330
C          0.89276      -12.14677       -8.78609
C          2.00711      -13.08738       -8.31377
S          2.92345      -13.82602       -9.69038
C          3.99628      -12.47049      -10.19215
S          4.11492      -11.03275       -9.33458
N          4.70310      -12.74201      -11.30897
C          4.62473      -14.02953      -12.01748
C          3.56434      -14.07060      -13.12640
C          3.48296      -15.45742      -13.77251
C          2.38489      -15.57985      -14.83420
C          2.27481      -16.98997      -15.42416
C          1.15313      -17.14668      -16.45578
C          1.03299      -18.56959      -17.01396
C         -0.09255      -18.72955      -18.03903
C          5.61658      -11.74266      -11.88561
C          7.05499      -11.86128      -11.36892
C          7.95974      -10.78364      -11.97484
C          9.43410      -10.93361      -11.58577
C         10.33340       -9.84667      -12.18387
C         11.82618      -10.06896      -11.92222
C         12.72120       -8.99073      -12.54201
C         14.21577       -9.24441      -12.33399
N          0.31131       -8.32069       -9.72029
C          8.58519       -6.35544       -5.32160
C          8.86972       -5.99153       -6.78337
C         10.31501       -6.30035       -7.18525
C         10.65627       -5.83164       -8.60369
C         12.10739       -6.10441       -9.01103
C         12.46821       -5.55395      -10.39390
C         13.93712       -5.76793      -10.77607
C         14.26652       -5.30813      -12.19803
H          6.30959        2.05501        2.65241
H          7.58407        0.84093        2.87062
H          5.88197        0.38587        3.07403
H          7.16345        1.30059        0.41496
H          5.47136        0.86006        0.61565
H          6.16552       -1.47548        1.27939
H          7.85504       -1.03278        1.04791
H          7.38009       -0.51769       -1.37910
H          5.69299       -0.96146       -1.13878
H          6.41514       -3.30545       -0.50643
H          8.09333       -2.85603       -0.80340
H          7.52276       -2.31000       -3.19638
H          5.84204       -2.74132       -2.89439
H          6.53805       -5.11127       -2.37337
H          8.22277       -4.68307       -2.68844
H          7.62536       -4.02364       -5.03913
H          5.93189       -4.39733       -4.73218
H          2.75353       -7.77280       -4.04691
H          4.14615       -8.72921       -4.66282
H          3.90453       -7.59553       -6.89652
H          2.43162       -6.76824       -6.33089
H          1.30404       -8.99688       -6.03441
H          2.82160       -9.81696       -6.51473
H          2.53512       -8.38243       -8.66186
H         -1.55507      -10.59292       -9.67091
H         -1.83498       -8.99728       -8.96228
H         -2.51628      -10.17589       -6.78471
H         -2.60820      -11.67307       -7.73410
H         -4.82395      -10.67951       -7.79229
H         -4.13084      -10.41393       -9.42018
H         -6.92170       -5.59436       -9.20061
H         -7.58310       -4.26623       -7.19428
H         -5.85811       -3.57436       -5.53748
H         -3.47449       -4.20138       -5.88487
H         -2.81936       -5.53525       -7.89258
H         -2.97665       -4.26077      -10.47215
H         -3.15588       -2.90447      -12.55428
H         -4.81708       -3.52317      -14.30341
H         -6.29735       -5.49924      -13.96728
H         -6.10458       -6.86185      -11.89119
H         -0.39908      -11.74817       -7.04375
H          1.19931      -11.02632       -6.96105
H          1.32098      -11.49064       -9.55757
H          0.07660      -12.71906       -9.25014
H          1.62560      -13.94827       -7.74595
H          2.73974      -12.54494       -7.69721
H          4.44241      -14.82830      -11.28282
H          5.62327      -14.22615      -12.43581
H          3.79638      -13.30895      -13.88876
H          2.58650      -13.80118      -12.69726
H          3.30508      -16.21006      -12.98429
H          4.45809      -15.71519      -14.22122
H          2.57094      -14.85340      -15.64437
H          1.41589      -15.29482      -14.38794
H          2.11532      -17.71205      -14.60387
H          3.23787      -17.26887      -15.88637
H          1.31698      -16.44007      -17.28855
H          0.19169      -16.85394      -15.99729
H          0.87316      -19.27229      -16.17852
H          1.99331      -18.86097      -17.47187
H         -1.07092      -18.48179      -17.60070
H         -0.15004      -19.76004      -18.41544
H          0.05769      -18.06806      -18.90522
H          5.21069      -10.74974      -11.65170
H          5.58920      -11.87794      -12.97799
H          7.45409      -12.86112      -11.60853
H          7.04668      -11.77538      -10.27154
H          7.59496       -9.78890      -11.66511
H          7.87597      -10.80842      -13.07606
H          9.79426      -11.92396      -11.91536
H          9.52847      -10.92843      -10.48612
H         10.03223       -8.86094      -11.78662
H         10.16383       -9.79618      -13.27413
H         12.11983      -11.05773      -12.31683
H         12.00842      -10.11372      -10.83363
H         12.44695       -8.01141      -12.11817
H         12.50807       -8.91981      -13.62230
H         14.46669       -9.30837      -11.26440
H         14.82560       -8.44169      -12.77054
H         14.52801      -10.19078      -12.79998
H          0.75102       -7.42483       -9.88846
H         -0.45128       -8.59067      -10.33409
H          8.75222       -7.42745       -5.15481
H          9.25233       -5.79494       -4.64842
H          8.66593       -4.91896       -6.94304
H          8.17121       -6.54857       -7.42693
H         10.49532       -7.38551       -7.09813
H         11.00706       -5.81941       -6.47130
H         10.45796       -4.74787       -8.68095
H          9.97388       -6.31524       -9.32481
H         12.29841       -7.19194       -8.98935
H         12.78426       -5.66484       -8.25729
H         12.23660       -4.47472      -10.43057
H         11.81911       -6.02389      -11.15449
H         14.18976       -6.83477      -10.66514
H         14.57886       -5.23343      -10.05581
H         13.66432       -5.85003      -12.94265
H         15.32450       -5.47600      -12.44196
H         14.06263       -4.23484      -12.32890
