43

C          0.30621       -0.14561       -0.28627
C          1.82163       -0.01417       -0.12011
C          2.61915       -1.10905       -0.86082
C          2.42990       -1.00459       -2.34522
N          2.35677        0.13646       -2.99874
N          2.16344       -0.20642       -4.30204
C          2.09570       -1.52318       -4.45394
N          2.28495       -2.06612       -3.23054
C          2.34017       -3.48979       -2.88692
C          2.86380       -4.36875       -4.02744
O          3.15583       -3.98109       -5.13977
O          2.92995       -5.62782       -3.58833
C          3.38452       -6.61971       -4.55613
C          1.83909        0.82379       -5.28521
C          0.33530        1.18120       -5.17868
C         -0.08288        2.22100       -6.24677
N         -0.32049        1.52200       -7.51640
O         -0.44190        0.00981       -5.32190
C          4.11629       -1.06316       -0.51547
O          4.74591       -2.14994       -1.20242
H         -0.21195        0.64488        0.27032
H         -0.05899       -1.10989        0.09603
H         -0.00359       -0.05887       -1.33764
H          2.08516       -0.08061        0.94586
H          2.15938        0.97375       -0.46635
H          2.23889       -2.09299       -0.54000
H          1.94907       -2.06414       -5.37884
H          1.34033       -3.84302       -2.59590
H          3.01604       -3.59846       -2.02961
H          3.39203       -7.56447       -4.00767
H          4.38863       -6.36316       -4.91236
H          2.68745       -6.66250       -5.40118
H          2.08075        0.42040       -6.27770
H          2.48219        1.68703       -5.07195
H          0.15840        1.59241       -4.17192
H          0.65883        3.03414       -6.31454
H         -1.02705        2.66961       -5.91254
H          0.47302        1.57706       -8.15260
H         -1.12818        1.89606       -8.00887
H         -0.66420        0.00690       -6.28706
H          4.22842       -1.16050        0.57723
H          4.54028       -0.09272       -0.82768
H          5.69189       -2.15274       -0.99071
