34

C          0.93589       -2.88036       -5.12574
C          2.44372       -2.62050       -5.12528
C          2.91905       -1.88182       -3.86783
C          4.43582       -1.65913       -3.84681
C          4.87470       -0.93446       -2.57256
N          6.34287       -0.76429       -2.50333
C          7.22933       -1.67178       -1.98217
N          8.47093       -1.27225       -2.11772
N          8.37690       -0.07026       -2.75128
C          7.09366        0.25499       -3.00013
I          6.38672        1.94979       -3.92724
C          9.60862        0.63225       -3.11505
C         10.46465       -0.11958       -4.17125
C          9.79171       -0.18039       -5.55627
F          8.58171       -0.81129       -5.48660
F          9.56109        1.07786       -6.03422
F         10.54687       -0.83165       -6.44690
O         11.73541        0.47237       -4.24361
H          0.62605       -3.40392       -6.03918
H          0.36569       -1.94183       -5.07137
H          0.63678       -3.50213       -4.26944
H          2.72067       -2.03360       -6.01678
H          2.98530       -3.57710       -5.20977
H          2.62129       -2.45573       -2.97324
H          2.40095       -0.91023       -3.79428
H          4.74719       -1.07312       -4.72696
H          4.95961       -2.62704       -3.91058
H          4.58944       -1.49420       -1.67131
H          4.42782        0.06607       -2.49462
H          6.92985       -2.60142       -1.50826
H         10.21890        0.72040       -2.20804
H          9.33469        1.63664       -3.46201
H         10.61487       -1.15821       -3.83921
H         11.69397        1.30286       -4.75032
