52

C          2.38050       -0.73216        0.03354
C          3.11581       -0.47003       -1.26056
O          3.75881        0.85111       -1.14460
C          4.45146        1.26598       -2.20583
O          4.59714        0.63683       -3.24132
C          5.05106        2.66154       -1.96453
C          6.55633        2.64437       -1.83438
C          7.14243        2.89320       -0.60568
C          8.54001        2.89740       -0.43811
C          9.41273        2.62874       -1.48544
C          8.86070        2.34467       -2.77148
C          7.42875        2.37098       -2.94008
C          6.90285        2.10090       -4.21659
N          7.68720        1.80325       -5.25799
C          7.07645        1.41570       -6.55475
C          6.92926       -0.10757       -6.65212
C          6.36578       -0.52439       -8.01407
S          6.36859       -2.33061       -8.12695
O          7.74146       -2.78897       -8.18366
O          5.43639       -2.83196       -7.15100
O          5.70057       -2.53878       -9.58683
C          9.05535        1.76254       -5.12043
C          9.64563        2.03390       -3.91923
C         10.89936        2.62116       -1.24119
O         11.72919        2.17910       -2.01831
O         11.19649        3.16443       -0.04909
C         12.61974        3.19986        0.30559
C         12.74778        3.97555        1.59679
H          1.88294       -1.70916       -0.02612
H          1.61172        0.02947        0.21662
H          3.06815       -0.75312        0.88844
H          2.44544       -0.43851       -2.13039
H          3.90371       -1.20893       -1.46138
H          4.61423        3.08532       -1.05424
H          4.73614        3.29415       -2.80864
H          6.50814        3.10015        0.25720
H          8.95572        3.11327        0.54481
H          5.83148        2.06535       -4.39970
H          7.72124        1.81445       -7.35008
H          6.10410        1.92063       -6.62184
H          6.26909       -0.46438       -5.84751
H          7.91347       -0.57925       -6.50533
H          6.97593       -0.15816       -8.85175
H          5.32382       -0.20621       -8.15686
H          6.39538       -2.88003      -10.18348
H          9.61712        1.50701       -6.01643
H         10.72869        1.99660       -3.82501
H         13.16459        3.66732       -0.52589
H         12.96781        2.16140        0.39881
H         12.39164        5.00733        1.48027
H         13.80475        4.01306        1.89217
H         12.18669        3.49761        2.41031
