69

C          1.00568        0.00756        0.18498
C          2.52654       -0.02234        0.01413
C          3.05658       -1.38670       -0.44249
C          4.57302       -1.41477       -0.66053
C          5.10167       -2.78628       -1.09554
C          6.61101       -2.79675       -1.36287
C          7.15418       -4.18426       -1.72618
C          8.65642       -4.14008       -2.02505
N          9.25403       -5.47426       -2.26430
C          9.53230       -6.30920       -1.25846
N          9.58474       -5.87234        0.02277
N          9.80682       -7.60910       -1.48503
C          9.59482       -8.30202       -2.75819
C          8.81551       -7.40079       -3.71257
C          9.38365       -5.96694       -3.66006
C         10.82469       -5.83394       -4.17648
C         11.26478       -4.38799       -4.35788
O         10.51112       -3.44032       -4.47723
O         12.60703       -4.30675       -4.39613
C         13.15243       -2.98138       -4.63563
C          8.78523       -7.99034       -5.12360
O          8.13815       -7.05844       -5.95866
C          8.02342       -7.50275       -7.32038
C          7.32245       -6.42408       -8.12725
C          7.14916       -6.81254       -9.59991
C          6.42124       -5.74352      -10.42337
C          6.24072       -6.13632      -11.89111
H          0.65811        0.99479        0.51803
H          0.67117       -0.73012        0.92952
H          0.49312       -0.22244       -0.76091
H          3.01141        0.25534        0.96539
H          2.83073        0.74733       -0.71522
H          2.54931       -1.67866       -1.37893
H          2.77797       -2.15300        0.30250
H          5.08293       -1.10608        0.26914
H          4.84598       -0.66068       -1.41916
H          4.56957       -3.11316       -2.00552
H          4.86118       -3.53318       -0.31856
H          7.14199       -2.42146       -0.46964
H          6.84503       -2.08600       -2.17346
H          6.62504       -4.57922       -2.60872
H          6.95103       -4.88839       -0.90144
H          9.21190       -3.62866       -1.22162
H          8.86674       -3.55507       -2.92814
H          9.40379       -4.89989        0.23196
H          9.47320       -6.52923        0.78426
H         10.21134       -8.13632       -0.71898
H          9.04170       -9.23143       -2.56046
H         10.57139       -8.58052       -3.18675
H          7.77289       -7.32702       -3.36168
H          8.73889       -5.32310       -4.26969
H         10.88996       -6.30507       -5.17025
H         11.55388       -6.35210       -3.53831
H         14.23601       -3.12064       -4.67170
H         12.87373       -2.30388       -3.81928
H         12.77744       -2.58248       -5.58570
H          8.24585       -8.95888       -5.10670
H          9.81278       -8.20476       -5.48698
H          7.45429       -8.45195       -7.34902
H          9.03406       -7.70767       -7.72516
H          7.90001       -5.48850       -8.04868
H          6.33829       -6.22669       -7.67217
H          6.59228       -7.76331       -9.66785
H          8.13806       -7.00724      -10.05058
H          6.97895       -4.79408      -10.35907
H          5.43558       -5.54697       -9.96893
H          7.21025       -6.30309      -12.38343
H          5.71462       -5.35327      -12.45326
H          5.65677       -7.06345      -11.98836
