53

C         -0.31424        0.20878       -1.57711
C          0.94689       -0.23071       -0.82910
C          2.01566       -0.80118       -1.76915
C          3.27890       -1.22325       -1.01300
N          4.32799       -1.73937       -1.90993
C          4.27126       -2.97200       -2.54818
C          5.38194       -3.08573       -3.34644
N          6.07548       -1.90739       -3.17197
C          5.44855       -1.09600       -2.30446
C          5.90791        0.27750       -1.91950
C          7.42341        0.43649       -2.13534
O          8.06974       -0.16090       -2.98298
O          7.91152        1.35987       -1.31050
C          9.33852        1.69909       -1.47550
C          9.65936        2.80106       -0.49282
C          5.17460        1.37896       -2.73341
C          5.88836       -4.18073       -4.24744
C          7.10362       -3.74359       -5.04174
C          6.96036       -3.18841       -6.31854
C          8.08639       -2.72594       -7.00522
C          9.35013       -2.80545       -6.42154
C          9.52024       -3.35873       -5.14161
C          8.38266       -3.82535       -4.46963
C         10.88756       -3.45233       -4.51568
H         -1.06588        0.60424       -0.88224
H         -0.77214       -0.63088       -2.11928
H         -0.09129        0.99770       -2.30990
H          0.68563       -0.98741       -0.07100
H          1.36612        0.62533       -0.27401
H          2.28258       -0.05459       -2.53488
H          1.60857       -1.66882       -2.31345
H          3.05779       -2.01470       -0.28275
H          3.70456       -0.37926       -0.45438
H          3.45419       -3.66156       -2.37465
H          6.98832       -1.64751       -3.57347
H          5.70936        0.43723       -0.84952
H          9.48984        2.00084       -2.52079
H          9.91872        0.78438       -1.29271
H          9.06491        3.70186       -0.69220
H         10.72071        3.06792       -0.58636
H          9.48020        2.48044        0.54145
H          5.36131        1.25478       -3.80758
H          5.53053        2.36836       -2.42289
H          4.09302        1.33379       -2.56035
H          5.07502       -4.48844       -4.92095
H          6.13152       -5.06009       -3.63024
H          5.97296       -3.12570       -6.78015
H          7.97576       -2.30436       -8.00484
H         10.22166       -2.43931       -6.96741
H          8.49869       -4.27008       -3.47703
H         11.54440       -4.11418       -5.09914
H         10.83903       -3.84537       -3.49247
H         11.37402       -2.46689       -4.48045
