26

C          0.93537       -0.29965       -0.22753
C          2.42420       -0.08935        0.05124
C          3.20791       -1.33440        0.52504
C          3.20678       -2.50052       -0.52024
N          2.93239       -3.68276        0.31282
C          2.46884       -3.31714        1.52548
N          2.02694       -4.20723        2.40881
N          2.51810       -1.98922        1.66954
N          2.76424       -4.99721       -0.11422
C          4.63270       -0.95103        0.88036
C          5.29212       -1.27984        1.99206
H          0.47742        0.64910       -0.53268
H          0.39717       -0.65397        0.66195
H          0.75091       -1.01748       -1.03965
H          2.55679        0.69025        0.81840
H          2.93415        0.29301       -0.84679
H          4.17877       -2.59688       -1.01933
H          2.41615       -2.38176       -1.27859
H          1.99612       -5.17892        2.10996
H          1.66105       -3.94083        3.31288
H          2.43250       -1.52719        2.56883
H          3.65824       -5.37952       -0.42923
H          2.08683       -5.04845       -0.88117
H          5.12787       -0.34502        0.11546
H          4.85257       -1.88331        2.78863
H          6.31780       -0.95029        2.15087
