63

C          0.79575       -1.45145        0.71415
C          1.79649       -0.72629       -0.15691
O          2.74593       -1.72605       -0.66363
C          3.66296       -1.28146       -1.53378
O          3.76656       -0.13173       -1.91911
C          4.59274       -2.41922       -1.97772
C          5.94952       -2.33128       -1.31437
C          6.26066       -3.19683       -0.27617
C          7.50668       -3.15055        0.38280
C          8.47225       -2.24540        0.00102
C          8.21230       -1.33476       -1.05948
C          6.92746       -1.36803       -1.71268
C          6.68912       -0.41558       -2.73599
C          7.63827        0.51283       -3.04520
N          8.85931        0.54131       -2.40905
C          9.18064       -0.37135       -1.46656
C         10.57989       -0.35550       -0.87803
C         10.75904        0.66384        0.14984
C         10.89111        1.51213        1.00012
C          9.73280        1.70180       -2.75545
C          9.22021        2.98000       -2.07622
C         10.18154        4.18192       -2.16882
C         10.51484        4.59458       -3.62348
C         11.81589        3.98882       -4.19055
C         12.07220        4.41541       -5.60662
C         12.12457        3.64586       -6.70941
C         11.95255        2.14840       -6.72014
C         12.37919        4.25710       -8.06259
C          9.57616        5.35235       -1.38025
H          0.07128       -0.72872        1.11309
H          1.28642       -1.94401        1.56369
H          0.24194       -2.20655        0.14166
H          2.36923        0.03145        0.39659
H          1.32882       -0.23521       -1.02115
H          4.68230       -2.35818       -3.07146
H          4.12977       -3.38062       -1.73051
H          5.51981       -3.93267        0.04043
H          7.70505       -3.84038        1.20291
H          9.41641       -2.22017        0.54040
H          5.73041       -0.36965       -3.24731
H          7.48864        1.28301       -3.79787
H         11.31655       -0.21994       -1.68589
H         10.79892       -1.34728       -0.46293
H         11.02161        2.25084        1.76441
H          9.72735        1.77996       -3.85049
H         10.75578        1.48303       -2.44042
H          9.03877        2.75149       -1.01539
H          8.24718        3.26077       -2.51357
H         11.12353        3.89112       -1.66843
H         10.60598        5.69085       -3.66907
H          9.67025        4.34971       -4.29104
H         11.80336        2.89107       -4.11536
H         12.65206        4.32055       -3.54946
H         12.21619        5.49338       -5.74218
H         11.78015        1.71986       -5.72467
H         12.84518        1.65922       -7.14154
H         11.10946        1.85911       -7.36828
H         12.49782        5.34598       -8.00236
H         11.55288        4.03877       -8.75831
H         13.28922        3.83770       -8.52117
H          8.64682        5.70885       -1.85009
H         10.27553        6.19806       -1.34616
H          9.34050        5.06853       -0.34431
