74

N          1.55085       -0.62362       -4.48588
C          2.86711       -0.07609       -4.87874
C          3.11727        1.31517       -4.27053
C          3.29377        1.30297       -2.72035
C          2.15678        1.95763       -1.90331
C          0.92594        1.03042       -1.88340
N         -0.35669        1.77874       -1.57482
C         -0.56618        3.02027       -2.44293
C          0.67719        3.89031       -2.24852
O          1.87376        3.18752       -2.57902
C         -0.87303        2.58875       -3.87634
C         -1.11036        3.77570       -4.81177
O         -1.67761        3.23240       -5.98872
C         -1.72304        4.12651       -7.08239
C         -1.83280        3.32284       -8.37874
C         -0.54206        2.58863       -8.89892
C          0.12332        1.40870       -8.09607
C         -0.75784        0.15195       -7.82259
F          0.08276       -0.86233       -7.43589
F         -1.61124        0.38504       -6.78903
F          1.17169        0.99590       -8.85964
F          0.63607        1.87202       -6.91466
F         -0.84866        2.07083      -10.12214
F          0.42507        3.53698       -9.05357
F         -2.83924        2.40094       -8.29728
F         -2.15793        4.21000       -9.36768
C          2.62781        2.33281       -0.43284
C          3.30704        1.24111        0.47848
C          3.86670        1.66782        1.90932
C          2.97141        2.34349        3.03036
C          1.67558        1.63687        3.60305
C          1.73518        0.23652        4.33600
C          2.60963        0.01179        5.63603
C          2.34809        0.92618        6.89154
F          1.03871        0.95907        7.19435
F          3.02571        0.41755        7.93129
F          2.77848        2.18094        6.66983
F          2.35450       -1.26673        6.01290
F          3.92072        0.11183        5.30563
F          0.44530       -0.04557        4.65499
F          2.15569       -0.68578        3.42861
F          1.11445        2.52719        4.45524
F          0.80806        1.45867        2.55823
F          3.81035        2.57316        4.06703
F          2.55654        3.54821        2.55209
F          4.39745        0.53349        2.42984
F          4.87492        2.54713        1.68415
F          2.42802        0.20685        0.64312
F          4.39884        0.75735       -0.16992
F          3.45248        3.39826       -0.49724
F          1.47972        2.73643        0.26274
O          4.23744        1.94007       -4.89226
H          1.63248       -1.61090       -4.24621
H          0.91233       -0.58711       -5.28094
H          2.95570        0.02503       -5.97058
H          3.66565       -0.76255       -4.55161
H          2.27248        1.96593       -4.53579
H          4.20986        1.87001       -2.51084
H          3.45294        0.27812       -2.35598
H          1.02351        0.24556       -1.12549
H          0.82674        0.53710       -2.86868
H         -0.34471        2.06303       -0.58417
H         -1.14879        1.13602       -1.70444
H         -1.43420        3.53942       -2.00724
H          0.70917        4.30213       -1.22778
H          0.64321        4.74105       -2.94022
H         -1.78763        1.97294       -3.88678
H         -0.06580        1.97254       -4.29305
H         -0.15831        4.28809       -5.04574
H         -1.79228        4.52002       -4.35163
H         -0.81946        4.75804       -7.14017
H         -2.61047        4.78343       -7.04068
H         -1.32062       -0.16722       -8.71226
H          5.00188        1.34060       -4.85510
