92

C          8.38222       10.53693       -0.54623
C          7.86030       10.25524        0.86455
C          7.71517        8.76130        1.17587
C          7.17732        8.48221        2.58287
C          7.05328        6.99187        2.91736
C          6.48275        6.75148        4.31955
C          6.41076        5.29348        4.74205
O          7.76025        4.79491        4.89270
C          7.81203        3.46146        5.36329
N          9.19749        3.08531        5.55364
C         10.01469        3.72433        6.42499
N         11.24538        3.27221        6.66608
C         12.18917        4.02843        7.50471
C         13.60623        3.92759        6.94186
C         14.04259        2.49227        6.66679
O         13.29818        1.63903        6.18877
O         15.31860        2.31114        6.98631
C         15.94862        1.00716        6.70657
C         17.02060        1.17992        5.64337
C         17.86742       -0.08990        5.47870
C         18.97719        0.06406        4.43241
C         19.88071       -1.16796        4.31839
C         20.99910       -1.01225        3.28287
C         21.92196       -2.23214        3.18570
C         23.03720       -2.06582        2.15082
O         11.81757        5.39247        7.51103
C         10.47691        5.56207        7.94764
N          9.57350        4.81064        7.06910
C         10.12744        7.04702        7.84310
O          8.72063        7.12526        7.93499
C          8.19487        8.45984        7.81219
C          6.68409        8.38015        7.94699
C          5.99035        9.73896        7.80067
C          4.46181        9.62331        7.83792
C          3.73739       10.97333        7.80847
C          2.21254       10.83873        7.82020
H          8.47769       11.61555       -0.73071
H          7.70609       10.12895       -1.31193
H          9.37260       10.08460       -0.70576
H          6.88291       10.74846        1.00026
H          8.53500       10.71555        1.60662
H          8.69467        8.26579        1.05204
H          7.04665        8.29625        0.43020
H          6.19116        8.96577        2.69721
H          7.83608        8.96559        3.32684
H          8.04262        6.51314        2.83382
H          6.40750        6.49739        2.17144
H          5.46295        7.16528        4.38513
H          7.08188        7.29842        5.06643
H          5.88170        4.68188        3.98785
H          5.87708        5.18794        5.70482
H          7.37479        2.75044        4.64159
H          7.26593        3.36874        6.32258
H          9.62318        2.44771        4.89031
H         11.64935        2.41221        6.25697
H         12.15014        3.62261        8.53460
H         14.30610        4.41144        7.63199
H         13.64016        4.47596        5.98660
H         15.16680        0.29619        6.41319
H         16.37947        0.70431        7.67041
H         17.67045        2.02313        5.92677
H         16.54680        1.44791        4.68495
H         17.21872       -0.93949        5.20455
H         18.31963       -0.35244        6.45073
H         19.59393        0.94399        4.68596
H         18.52642        0.28339        3.44901
H         19.26787       -2.05076        4.06487
H         20.32608       -1.38365        5.30557
H         21.60196       -0.12009        3.52881
H         20.55543       -0.81109        2.29169
H         21.32013       -3.12372        2.94029
H         22.36441       -2.43131        4.17654
H         22.62695       -1.90159        1.14320
H         23.68043       -2.95513        2.10511
H         23.67885       -1.20460        2.38963
H         10.36372        5.19450        8.98347
H          8.78267        5.32329        6.66695
H         10.50009        7.43182        6.87350
H         10.63282        7.59894        8.65557
H          8.48938        8.88015        6.83078
H          8.63394        9.10136        8.59843
H          6.43934        7.93500        8.92461
H          6.29982        7.68492        7.18254
H          6.29794       10.21568        6.85362
H          6.32709       10.41429        8.60552
H          4.16076        9.07137        8.74574
H          4.12441        9.00683        6.98544
H          4.05228       11.53841        6.91489
H          4.06164       11.57358        8.67531
H          1.85235       10.28650        6.93936
H          1.72233       11.82142        7.81824
H          1.86592       10.29752        8.71322
