41

C          6.06080        1.59704        1.83539
C          5.94850        0.31028        1.01402
C          4.57184       -0.35361        1.14805
C          4.34946       -1.60044        0.27439
C          5.37214       -2.75175        0.34470
C          5.19358       -3.69760       -0.88129
S          5.02775       -5.42885       -0.22097
C          5.09820       -4.87607        1.36478
N          5.27250       -3.59466        1.57607
C          5.47657       -2.97771        2.90329
C          5.87781       -3.97443        3.98811
C          6.26150       -3.35812        5.29908
C          6.20396       -2.08766        5.71732
F          5.75275       -1.07343        4.97046
F          6.58302       -1.68392        6.91156
F          6.73038       -4.27773        6.17668
C          6.28012       -3.58872       -1.96466
C          7.69397       -3.85845       -1.49975
C          8.63268       -4.65629       -2.30549
O          7.99207       -5.22171       -1.14361
H          7.05236        2.05397        1.72476
H          5.90160        1.40242        2.90600
H          5.31481        2.33876        1.51748
H          6.74693       -0.38341        1.33282
H          6.14776        0.52718       -0.04942
H          3.79816        0.37382        0.85629
H          4.36807       -0.56916        2.20808
H          4.36365       -1.27920       -0.78089
H          3.34426       -2.01895        0.44718
H          6.39410       -2.33989        0.35404
H          4.21709       -3.49944       -1.34579
H          5.02665       -5.58083        2.19321
H          4.55377       -2.44684        3.17430
H          6.26003       -2.21982        2.76569
H          6.74518       -4.56805        3.64881
H          5.05918       -4.68809        4.18998
H          6.22522       -2.56831       -2.38120
H          6.02506       -4.26961       -2.79017
H          8.13332       -3.11919       -0.81753
H          9.70746       -4.48671       -2.20350
H          8.30223       -5.06837       -3.26345
