91

C          7.06894        2.45170       14.05808
C          7.00216        1.04902       13.45154
C          7.83490        0.90289       12.17433
C          7.78249       -0.50142       11.56647
C          8.62457       -0.65340       10.29654
C          8.59679       -2.06807        9.71056
C          9.46552       -2.22998        8.45989
C          9.49622       -3.66092        7.91432
C         10.43459       -3.82994        6.71570
C         10.55117       -5.27904        6.23149
C         11.56467       -5.48156        5.11259
O         12.91660       -5.06802        5.47559
C         13.52554       -5.88877        6.41242
S         15.35454       -5.69891        6.20249
C         15.68990       -3.85918        6.68951
C         14.74599       -3.40594        7.81590
C         15.13656       -2.14362        8.63616
C         15.22492       -0.84410        7.82525
C         14.11026       -1.98684        9.76876
C         17.16771       -3.86454        7.13180
O         18.00045       -4.65821        6.29234
C         15.49164       -3.13324        5.35362
C         15.93622       -6.71412        7.61639
C         15.61230       -8.20400        7.44790
C         16.24691       -8.91441        6.23389
C         17.78100       -8.97862        6.36152
C         18.51261       -9.56853        5.13994
C         20.00637       -9.48089        5.28181
C         20.88806      -10.49239        5.39039
C         20.52507      -11.95386        5.37684
C         22.36269      -10.21600        5.52862
C         15.61640      -10.30503        6.08117
H          6.46177        2.52633       14.97048
H          6.70078        3.20931       13.35048
H          8.10222        2.72195       14.32290
H          5.95275        0.79129       13.23033
H          7.34546        0.30845       14.19365
H          8.88499        1.16669       12.39376
H          7.48844        1.63886       11.42754
H          6.73372       -0.76319       11.34201
H          8.12278       -1.23536       12.31815
H          9.66982       -0.37315       10.51909
H          8.27407        0.06597        9.53600
H          7.55583       -2.34620        9.47184
H          8.93259       -2.78536       10.48018
H         10.49790       -1.91248        8.69583
H          9.11127       -1.54266        7.67244
H          8.47615       -3.97298        7.63336
H          9.81095       -4.34772        8.72026
H         11.43537       -3.45593        6.99137
H         10.09554       -3.19262        5.88136
H          9.57856       -5.63166        5.84996
H         10.78859       -5.94413        7.08046
H         11.32949       -4.85459        4.24227
H         11.59973       -6.53538        4.78465
H         13.34608       -6.96401        6.22617
H         13.27762       -5.64895        7.46183
H         14.65727       -4.22106        8.55365
H         13.74179       -3.24680        7.39199
H         16.11816       -2.32649        9.10531
H         14.30315       -0.66629        7.25131
H         16.07208       -0.82667        7.12656
H         15.35894        0.00922        8.50340
H         13.10782       -1.77876        9.36475
H         14.38406       -1.14907       10.42327
H         14.04392       -2.89042       10.39106
H         17.26221       -4.27669        8.14671
H         17.50847       -2.81748        7.17485
H         18.30594       -4.13154        5.53777
H         14.45854       -3.22426        4.99886
H         16.15771       -3.52828        4.57436
H         15.71338       -2.06723        5.48705
H         15.49351       -6.29972        8.53286
H         17.01945       -6.53860        7.62528
H         14.52173       -8.35515        7.44575
H         15.97005       -8.68745        8.37344
H         16.00558       -8.33349        5.32263
H         18.03852       -9.57367        7.25512
H         18.18799       -7.96850        6.53885
H         18.19793       -9.00812        4.24013
H         18.19832      -10.60844        4.97956
H         20.40864       -8.46097        5.30909
H         19.44759      -12.14124        5.30341
H         20.89489      -12.44997        6.28806
H         21.01411      -12.46390        4.53135
H         22.57891       -9.14036        5.54676
H         22.92579      -10.66703        4.69574
H         22.76375      -10.66577        6.45106
H         15.85243      -10.94050        6.94854
H         15.98280      -10.81704        5.18342
H         14.52145      -10.24309        6.00014
