77

C          0.68499       -0.17224       -0.25809
C          2.20987       -0.16520       -0.12612
C          2.76748        1.15628        0.41439
C          4.29322        1.16887        0.54927
C          4.85721        2.48547        1.09294
C          6.38413        2.48789        1.21918
C          6.95979        3.80535        1.74746
C          8.48831        3.80562        1.85611
C          9.06654        5.14005        2.33644
C         10.59666        5.15713        2.41644
C         11.16499        6.52305        2.81232
C         12.69638        6.56887        2.85394
C         13.24140        7.98471        3.08522
C         14.76984        8.09039        3.20016
C         15.48744        7.60239        1.93475
N         16.93316        7.92175        1.89480
C         17.81385        7.21025        2.63649
N         19.10415        7.51859        2.79385
C         19.84675        8.75068        2.63288
C         21.22968        8.47112        3.27867
O         21.42519        7.34107        3.72408
C         22.23225        9.54615        3.33348
C         21.99224       10.82729        2.79912
C         22.97092       11.81428        2.88554
C         24.19333       11.53300        3.50529
C         24.44158       10.26127        4.03659
C         23.46909        9.27146        3.95207
N         17.38699        6.09070        3.26618
C         17.39399        8.89806        0.87366
O         18.27255        8.35928       -0.06469
C         17.67699        7.40294       -0.95489
H          0.31766       -1.13234       -0.64632
H          0.33892        0.61657       -0.94265
H          0.19913       -0.00047        0.71412
H          2.66629       -0.37619       -1.10828
H          2.52683       -0.98936        0.53549
H          2.31116        1.36835        1.39764
H          2.45139        1.98232       -0.24730
H          4.74708        0.95858       -0.43550
H          4.60727        0.33939        1.20741
H          4.40792        2.69661        2.07937
H          4.54386        3.31620        0.43609
H          6.82982        2.26725        0.23294
H          6.69630        1.66105        1.88135
H          6.52252        4.02701        2.73683
H          6.64295        4.63187        1.08699
H          8.92181        3.55633        0.87119
H          8.80773        2.99843        2.53861
H          8.64571        5.38940        3.32603
H          8.73275        5.94392        1.65673
H         11.01353        4.86269        1.43646
H         10.93814        4.38957        3.13312
H         10.76394        6.82359        3.79531
H         10.80511        7.28201        2.09564
H         13.07906        6.16310        1.90038
H         13.06688        5.89288        3.64588
H         12.80215        8.39612        4.00731
H         12.89503        8.64318        2.26981
H         15.12017        7.52655        4.07950
H         15.05498        9.14013        3.37088
H         15.04860        8.09278        1.05609
H         15.33331        6.52480        1.75940
H         19.72951        6.82932        3.25141
H         19.36365        9.59502        3.14786
H         19.98979        9.00923        1.57073
H         21.04596       11.06279        2.31011
H         22.78397       12.80443        2.47037
H         24.95667       12.30876        3.57399
H         25.39639       10.04691        4.51679
H         23.64249        8.27556        4.35941
H         16.50816        5.65172        3.03063
H         17.99024        5.61643        3.92532
H         17.92127        9.73459        1.34569
H         16.47296        9.28414        0.40793
H         18.44204        7.15474       -1.69700
H         16.79766        7.83368       -1.46163
H         17.38119        6.48454       -0.42192
