45

Br        -2.38932        4.29063       -0.18355
C         -1.87248        4.98891        1.50788
C         -0.71597        4.67084        2.09666
C          0.35953        3.76504        1.53533
C          0.12562        2.33367        1.88116
N         -0.86009        1.54484        1.41173
C         -0.80938        0.27908        1.98037
C          0.25769        0.31081        2.84376
N          0.81228        1.58073        2.75781
N          1.94172        2.11923        3.48017
N          3.13998        1.44040        3.19281
N          1.59917        2.11847        4.85189
C         -1.76345       -0.82770        1.59945
C         -1.17155       -1.71543        0.46139
C         -0.72386       -1.02953       -0.85269
C          0.74687       -0.58136       -0.81915
C         -0.95623       -1.97457       -2.04185
C         -2.02466       -1.71486        2.85255
O         -0.85173       -2.31613        3.39974
C         -3.12709       -0.23914        1.18274
Br        -0.36902        5.39126        3.82225
H         -2.61626        5.65669        1.93480
H          1.33951        4.05528        1.93124
H          0.38083        3.87193        0.43959
H         -1.55468        1.87345        0.73947
H          0.63514       -0.46668        3.49564
H          3.51478        1.77572        2.30515
H          3.03871        0.41897        3.16342
H          1.98474        2.97652        5.24837
H          2.03447        1.32404        5.33262
H         -1.95299       -2.45731        0.22874
H         -0.31651       -2.27892        0.86838
H         -1.35365       -0.13756       -1.02572
H          1.41145       -1.45334       -0.72225
H          0.97431        0.09551        0.01549
H          1.01862       -0.06289       -1.74905
H         -0.37927       -2.90464       -1.92251
H         -0.64180       -1.51023       -2.98655
H         -2.01650       -2.24775       -2.13651
H         -2.77212       -2.47810        2.58274
H         -2.45606       -1.09001        3.64931
H         -0.74328       -3.20204        3.02398
H         -3.07182        0.35524        0.25940
H         -3.55749        0.39113        1.97371
H         -3.83386       -1.05456        0.98057
