69

O          1.94175       -0.71905        1.99824
C          3.27355       -0.24506        2.02092
C          3.30059        1.13045        1.37181
O          4.67385        1.55699        1.37067
C          4.86214        2.93728        1.18455
O          6.18641        3.26155        1.57220
C          6.43773        3.01104        2.94708
N          7.88280        3.04124        3.16173
C          8.73267        1.88673        2.72915
C          7.98493        0.58462        2.52420
C          7.52370       -0.12492        3.80636
C          6.54777       -1.24932        3.44923
C          5.93238       -1.96609        4.66012
N          4.68585       -2.64162        4.31690
C          4.52637       -3.58844        3.32629
C          3.18039       -3.89358        3.23290
C          2.49696       -3.10036        4.19899
C          3.45289       -2.33506        4.84814
O          9.34852        2.23898        1.48557
C         10.29439        3.24628        1.66028
N          9.75466        4.28388        2.56508
C          8.53349        4.23452        3.11980
N          8.01894        5.36725        3.63646
C          7.14048        5.50988        4.80631
C          7.64758        6.65443        5.68990
C          6.71328        6.89281        6.87919
S          7.36253        8.29806        7.82625
C          6.18295        8.41607        9.14175
S          4.92323        7.38681        9.36721
N          6.46807        9.49727        9.97954
C          7.43708       10.49718        9.81413
C          7.33382       11.29525       10.91621
N          6.34065       10.83236       11.77308
C          5.83994        9.77270       11.20218
H          1.93090       -1.54485        2.51890
H          3.95802       -0.92038        1.47232
H          3.64780       -0.15257        3.05818
H          2.67917        1.83798        1.94969
H          2.90786        1.08632        0.34173
H          4.11700        3.50728        1.78223
H          4.79692        3.23366        0.12425
H          6.06218        2.02540        3.24358
H          5.95346        3.77284        3.57564
H          9.51345        1.77683        3.50528
H          8.68497       -0.06398        1.97804
H          7.13881        0.75388        1.84172
H          7.02199        0.58112        4.49071
H          8.39558       -0.51169        4.35901
H          7.04863       -1.98000        2.79486
H          5.73034       -0.81906        2.85558
H          5.68968       -1.24025        5.44967
H          6.64171       -2.68861        5.09483
H          5.37758       -3.97610        2.77688
H          2.74134       -4.62102        2.55817
H          1.43700       -3.12304        4.43337
H          3.35967       -1.61696        5.65650
H         10.49765        3.68009        0.67067
H         11.23602        2.87150        2.10576
H         10.35772        5.06876        2.79427
H          8.42971        6.23081        3.29141
H          7.14452        4.56005        5.35889
H          6.10705        5.71189        4.48103
H          7.71507        7.57397        5.08338
H          8.66466        6.42174        6.04210
H          6.65806        6.02021        7.54515
H          5.68994        7.13356        6.55751
H          8.06921       10.55470        8.93622
H          7.90973       12.18529       11.15004
H          5.04573        9.13540       11.57583
