59

C         10.10401        2.22702        3.05767
C         10.21847        1.38744        1.78330
C         10.55840        2.21719        0.54044
C         10.66352        1.38451       -0.74072
C         10.99878        2.22624       -1.97607
C         11.09711        1.42173       -3.26701
O          9.88268        0.70111       -3.59847
C          8.83057        1.51065       -4.08050
C          9.05658        1.93807       -5.51065
N          9.37733        1.12207       -6.54132
C          9.58330       -0.34450       -6.48111
C          8.28478       -1.15209       -6.35787
C          7.19172       -0.87973       -7.40953
C          7.64275       -1.13555       -8.84485
O          8.64855       -0.64734       -9.31815
O          6.86304       -1.93304       -9.61104
C          9.51538        1.87097       -7.69517
C          9.28222        3.17302       -7.35778
N          9.00270        3.19879       -6.00449
C          8.68521        4.43379       -5.22259
O          9.52648        4.58958       -4.12603
C         10.83934        5.14137       -4.42862
O         10.77772        6.38214       -5.03315
C         10.29279        7.44414       -4.17387
C         10.14859        8.69814       -5.01519
O          9.15639        8.54592       -6.03329
H          9.87445        1.60047        3.92981
H          9.30623        2.97965        2.97116
H         11.04145        2.76126        3.27118
H          9.27271        0.84615        1.61053
H         10.98930        0.61052        1.92059
H         11.50854        2.75398        0.70896
H          9.79085        3.00047        0.40458
H          9.71561        0.84775       -0.90946
H         11.43312        0.60377       -0.61256
H         11.97261        2.72756       -1.83847
H         10.26361        3.04041       -2.08886
H         11.85240        0.62874       -3.17413
H         11.38966        2.06412       -4.11865
H          8.66604        2.40718       -3.46440
H          7.91902        0.89610       -4.02610
H         10.22363       -0.54725       -5.61545
H         10.11812       -0.60424       -7.39958
H          7.84583       -1.00367       -5.36074
H          8.58176       -2.21120       -6.39605
H          6.87329        0.17509       -7.36803
H          6.30523       -1.47664       -7.15102
H          6.09787       -2.26208       -9.10755
H          9.73824        1.39800       -8.64486
H          9.29018        4.07361       -7.96002
H          7.66009        4.34637       -4.84148
H          8.74752        5.27186       -5.93333
H         11.37783        4.47781       -5.12458
H         11.33065        5.15607       -3.44235
H         11.01109        7.60618       -3.35032
H          9.31644        7.16182       -3.74964
H         11.12244        8.98342       -5.44498
H          9.81868        9.51782       -4.35907
H          9.59778        8.22462       -6.83278
