54

C          1.57993        0.71207        0.48907
C          2.92571        0.05566        0.18036
C          3.23816       -1.10505        1.15388
C          4.60390       -1.67190        0.90093
O          5.64095       -1.01557        0.97629
O          4.58403       -2.97927        0.55172
C          5.84734       -3.57690        0.17057
C          6.72157       -3.89783        1.40379
N          8.15960       -3.93431        1.09075
C          8.81034       -2.79210        0.80404
N         10.10900       -2.65187        0.47638
N         10.44601       -1.33846        0.24341
C          9.33351       -0.67382        0.44164
N          8.30048       -1.53643        0.79412
C          9.17742        0.80212        0.33193
C          7.96874        1.24312       -0.51292
C          7.86075        2.76784       -0.61074
N          6.61222        3.13972       -1.28319
C          8.87418       -5.18101        0.98789
C          9.51213       -5.71106        2.11167
C         10.20205       -6.92121        2.02332
C         10.24672       -7.59154        0.79912
C          9.61488       -7.07338       -0.33433
C          8.91691       -5.85938       -0.25354
O          8.26246       -5.25919       -1.28439
C          8.29827       -5.89644       -2.57238
H          1.37569        1.52658       -0.21793
H          1.56668        1.13932        1.50207
H          0.75100       -0.00626        0.41763
H          3.73522        0.79819        0.23906
H          2.92803       -0.33270       -0.85032
H          2.48581       -1.90044        1.07929
H          3.23172       -0.72251        2.18750
H          6.37287       -2.90431       -0.52074
H          5.57332       -4.48694       -0.37165
H          6.46609       -4.87673        1.82319
H          6.54560       -3.14965        2.19133
H         10.80152       -3.38865        0.39144
H          7.28267       -1.30271        0.89912
H         10.11880        1.18966       -0.08221
H          9.08586        1.21810        1.35047
H          7.02943        0.86869       -0.07900
H          8.04863        0.80957       -1.52415
H          8.77478        3.17097       -1.09206
H          7.83050        3.19078        0.40626
H          6.67329        2.95743       -2.28627
H          6.43867        4.13999       -1.18545
H          9.45761       -5.16388        3.05396
H         10.69712       -7.33471        2.90042
H         10.78184       -8.53803        0.71753
H          9.66487       -7.61932       -1.27464
H          7.72709       -5.24145       -3.23748
H          7.82553       -6.88922       -2.53805
H          9.33060       -5.98401       -2.94251
