36

C          3.23556        2.11529       -5.23375
C          2.71055        1.69417       -3.85973
C          3.47714        0.50714       -3.24910
C          4.93412        0.76224       -2.95009
O          5.86203        0.02291       -3.23704
O          5.12342        1.93537       -2.27098
C          6.48520        2.20744       -1.88813
C          7.29887        2.79419       -3.05926
C          8.78476        2.40932       -3.09399
C          9.63916        3.23724       -4.01748
C          9.22352        4.24428       -4.79297
S          9.57612        2.70552       -1.36610
C         10.39427        1.23524       -1.44605
N         10.08922        0.44792       -2.44694
C          8.96598        0.86469       -3.31708
C          9.18843        0.44293       -4.76533
H          2.63726        2.93743       -5.64741
H          3.19878        1.28203       -5.95006
H          4.27851        2.46494       -5.18180
H          1.65571        1.39510       -3.94404
H          2.73718        2.54406       -3.16314
H          3.44143       -0.37149       -3.90694
H          3.00819        0.21878       -2.29338
H          6.93174        1.28216       -1.49795
H          6.40201        2.92937       -1.06645
H          7.20047        3.88719       -3.06157
H          6.86245        2.43847       -4.00487
H         10.69904        2.96359       -4.03533
H          8.18633        4.57606       -4.83818
H          9.93052        4.77512       -5.42980
H         11.14591        0.94901       -0.70786
H         10.52641       -0.46676       -2.56073
H          8.06088        0.35298       -2.94513
H         10.09563        0.87965       -5.19918
H          8.32702        0.75145       -5.36963
H          9.24624       -0.65223       -4.83085
