62

F          2.03794       -0.38138        0.82611
C          3.24362       -0.23516        0.21406
C          3.23074       -1.10283       -1.11579
C          2.09113       -0.91762       -2.20290
C          1.91241        0.42338       -3.02480
C          3.05508        1.03088       -3.93380
C          3.71431        0.21726       -5.11767
C          2.85175       -0.32503       -6.32933
C          2.03749        0.70346       -7.20043
F          2.82145        1.72307       -7.59321
F          1.57221        0.06488       -8.28254
F          0.99297        1.19598       -6.50834
F          3.74619       -0.92580       -7.15226
F          1.98797       -1.26090       -5.86564
F          4.66555        1.04625       -5.62328
F          4.33847       -0.86112       -4.57885
F          2.54649        2.17950       -4.44485
F          4.08911        1.37765       -3.10461
F          0.82146        0.24223       -3.79793
F          1.62371        1.41030       -2.11526
F          2.26260       -1.92262       -3.09290
F          0.90264       -1.09858       -1.56957
F          4.44640       -0.96147       -1.71761
F          3.10680       -2.38676       -0.70836
C          3.60413        1.24329        0.10755
C          2.65241        2.21201        0.44562
C          2.99156        3.55706        0.39205
C          2.08770        4.70587        0.73312
C          0.58701        4.37455        0.83957
C         -0.21733        5.61491        1.16510
C         -0.69776        6.44176        0.13970
C         -1.40848        7.60594        0.44088
C         -1.64638        7.95538        1.77291
C         -1.17242        7.13710        2.80154
C         -0.46090        5.97411        2.49821
N          4.25745        3.86271       -0.00845
C          5.23503        2.96498       -0.32667
C          4.89853        1.61156       -0.25240
C          6.54727        3.47819       -0.72296
C          7.06529        4.65703       -0.14844
C          8.30652        5.14404       -0.54928
C          9.04106        4.46588       -1.52785
C          8.53618        3.29333       -2.09926
C          7.29914        2.79471       -1.69907
F          4.19270       -0.82516        1.00614
H          1.64888        1.91950        0.74101
H          2.23109        5.50296       -0.01707
H          2.43023        5.13682        1.69154
H          0.42663        3.62135        1.62613
H          0.23863        3.93755       -0.10905
H         -0.52876        6.16624       -0.90428
H         -1.78541        8.23593       -0.36533
H         -2.20770        8.85985        2.00892
H         -1.36255        7.40086        3.84238
H         -0.10391        5.33241        3.30753
H          4.49793        4.85224       -0.09986
H          5.65983        0.86450       -0.46129
H          6.53076        5.16763        0.65634
H          8.70973        6.04448       -0.08645
H         10.01154        4.85021       -1.84215
H          9.10610        2.76924       -2.86605
H          6.89713        1.89862       -2.17298
