35

N          6.03285       -0.98669       -1.03603
C          4.94927       -0.94506       -2.04359
C          3.79338       -0.05972       -1.57573
C          4.20756        1.32727       -1.06689
N          4.91168        2.15724       -2.04962
C          6.23321        2.37711       -2.08538
N          7.10657        1.60310       -1.43816
C          8.53397        1.93036       -1.34527
C          9.31641        0.84263       -0.59194
C          9.76295       -0.35137       -1.44535
C         11.05348       -0.12624       -2.30626
Br        12.62744        0.32844       -1.24424
F         11.30825       -1.21459       -3.04877
F         10.80882        0.90580       -3.17151
Br        10.03177       -1.92396       -0.30667
F          8.77390       -0.66703       -2.37182
N          6.67249        3.45900       -2.79583
N          5.73002        4.23849       -3.48020
H          6.76568       -1.63067       -1.34062
H          5.67860       -1.36070       -0.15191
H          4.55682       -1.94546       -2.28648
H          5.38167       -0.54170       -2.97242
H          3.25341       -0.55408       -0.75147
H          3.07000        0.04130       -2.39809
H          4.84721        1.24018       -0.17764
H          3.31127        1.88436       -0.76210
H          4.38762        2.83599       -2.60387
H          6.76481        0.63814       -1.13931
H          8.64648        2.87660       -0.79311
H          8.97355        2.07254       -2.34548
H          8.71016        0.46730        0.24269
H         10.21661        1.28596       -0.14661
H          7.65493        3.50421       -3.05435
H          5.83587        4.13145       -4.49115
H          5.84426        5.22171       -3.22987
