105

C          0.34508        0.44126        0.36926
C          1.86015        0.23439        0.28789
C          2.64403        1.09804        1.28217
C          4.16199        0.89683        1.22053
C          4.93002        1.76165        2.22471
C          6.45034        1.57442        2.18261
C          7.18872        2.45113        3.19840
C          8.71294        2.29293        3.18892
C          9.40409        3.19695        4.21377
C         10.93184        3.08554        4.24976
C         11.55564        4.00093        5.30783
C         13.08466        3.94742        5.39375
C         13.63189        4.87138        6.48630
C         15.15694        4.87614        6.63379
C         15.61948        5.82679        7.74247
C         17.13416        5.87257        7.97158
C         17.50472        6.86139        9.08270
C         19.00420        6.95365        9.38940
C         19.26790        7.97823       10.49721
C         20.77695        8.12376       10.85250
C         20.94009        9.10465       11.94720
N         21.27969        8.77051       13.15837
C         21.25736        9.87514       14.13658
C         21.25185       11.12547       13.22651
C         20.62170       10.57342       11.89835
C         20.97418       11.28069       10.58066
C         20.36657       12.68541       10.52239
O         20.79386       13.38244        9.33959
C         21.98405       14.06422        9.45927
O         22.63422       14.06444       10.48622
C         22.34604       14.77408        8.18040
C         22.81025       16.22121        8.42253
C         23.28035       16.89909        7.13497
C         22.66066       11.71529       13.06629
C         23.11996       12.46660       14.31486
O         24.47264       12.81136       14.11824
C         24.99730       13.67376       15.12746
C         26.42659       14.03729       14.72638
O         27.04576       14.86792       15.70346
H         -0.18947       -0.19064       -0.35351
H          0.07316        1.48713        0.16047
H         -0.03760        0.19675        1.37165
H          2.20808        0.45295       -0.73612
H          2.09724       -0.82853        0.46559
H          2.29026        0.88395        2.30662
H          2.41020        2.16261        1.10159
H          4.51937        1.11649        0.19887
H          4.39720       -0.16738        1.39937
H          4.56673        1.54224        3.24448
H          4.69138        2.82505        2.04504
H          6.82003        1.79793        1.16634
H          6.69470        0.51320        2.36602
H          6.80954        2.22793        4.21151
H          6.93568        3.51005        3.01215
H          9.10056        2.51490        2.17914
H          8.97565        1.23928        3.38916
H          9.00421        2.97228        5.21855
H          9.12622        4.24669        4.01154
H         11.34494        3.33200        3.25588
H         11.22275        2.03902        4.44841
H         11.13261        3.74603        6.29580
H         11.24374        5.04200        5.11069
H         13.52136        4.22538        4.41861
H         13.40921        2.91037        5.58851
H         13.18016        4.58749        7.45344
H         13.28772        5.90216        6.28866
H         15.62278        5.16743        5.67654
H         15.51347        3.85392        6.84847
H         15.12378        5.54308        8.68733
H         15.26109        6.84549        7.51202
H         17.64622        6.15585        7.03609
H         17.50283        4.86542        8.23118
H         16.96588        6.58244       10.00500
H         17.13241        7.86385        8.80789
H         19.55983        7.23960        8.48046
H         19.38891        5.96524        9.69207
H         18.71634        7.69113       11.40737
H         18.87174        8.95783       10.18683
H         21.32597        8.47884        9.96614
H         21.19809        7.14853       11.13810
H         21.48932        7.80762       13.42553
H         22.13516        9.80808       14.79169
H         20.35187        9.77384       14.75474
H         20.58474       11.88675       13.65370
H         19.51623       10.60712       12.01010
H         20.59149       10.69980        9.72857
H         22.06510       11.34356       10.46643
H         20.64224       13.27870       11.40598
H         19.27130       12.63391       10.44762
H         21.49815       14.73301        7.48367
H         23.16844       14.19721        7.72236
H         23.61700       16.21474        9.16956
H         21.97968       16.79282        8.86633
H         24.14160       16.37310        6.69762
H         23.58722       17.93541        7.32760
H         22.48493       16.92515        6.37612
H         22.69690       12.42479       12.22796
H         23.39256       10.92018       12.84239
H         23.00516       11.85590       15.23740
H         22.49778       13.37474       14.45396
H         24.99663       13.17525       16.11520
H         24.37544       14.58771       15.20738
H         26.42279       14.50198       13.72539
H         27.03390       13.12286       14.66694
H         26.72293       15.77510       15.59243
