76

C          3.04923       -3.01785       -4.05606
C          3.98239       -2.48536       -2.96567
C          4.40099       -3.55426       -1.94942
C          5.30725       -3.01533       -0.83782
C          5.75181       -4.08979        0.16149
C          6.56544       -3.51356        1.32879
C          7.03808       -4.61291        2.28312
S          7.87133       -3.79996        3.70565
C          8.26825       -5.13361        4.71748
N          8.58137       -5.08764        5.99242
N          8.89885       -6.38118        6.37975
C          8.73531       -7.10650        5.32252
O          8.34211       -6.43776        4.21015
N          8.89241       -8.49242        5.22777
C          8.91918       -9.20382        4.07923
N          9.09296      -10.49972        4.39096
C          9.19187      -10.61497        5.78270
C          9.06760       -9.34538        6.30384
C          9.33074      -11.83873        6.52672
N          9.14133      -11.97504        7.81227
N          9.40484      -13.28798        8.11872
C          9.73271      -13.88231        6.98865
O          9.71416      -13.01110        5.91731
S         10.11481      -15.54888        6.78973
C         10.64491      -15.62638        5.03429
C         11.06422      -17.06892        4.74222
C         11.62039      -17.23005        3.32117
C         12.07044      -18.66480        3.02329
C         12.71008      -18.83218        1.64146
C         13.16532      -20.26771        1.35363
C         13.83839      -20.42871       -0.01145
C          9.19233      -11.61577        3.42448
C          8.65864      -11.22881        2.04894
C          8.48893      -12.36613        1.02962
C          9.79431      -12.85008        0.30388
Br        11.09560      -13.75332        1.46890
F          9.47584      -13.68101       -0.69711
F         10.39661      -11.75588       -0.22925
Br         7.52139      -13.90176        1.77765
F          7.71328      -11.84528        0.01644
H          2.76744       -2.22696       -4.76393
H          2.12151       -3.42299       -3.62537
H          3.52577       -3.82456       -4.63271
H          3.48940       -1.65463       -2.43316
H          4.88497       -2.05304       -3.42929
H          4.91456       -4.37763       -2.47703
H          3.49776       -4.00128       -1.49741
H          4.77773       -2.21286       -0.29572
H          6.19886       -2.54217       -1.28407
H          6.34814       -4.85582       -0.36417
H          4.86386       -4.60993        0.56043
H          5.94842       -2.78562        1.88002
H          7.43680       -2.96062        0.94247
H          7.75027       -5.28761        1.78980
H          6.19154       -5.19503        2.67279
H          8.82575       -8.77970        3.08904
H          9.07937       -8.99107        7.32765
H         11.48611      -14.93226        4.89818
H          9.80996      -15.31205        4.39283
H         10.20219      -17.74028        4.88453
H         11.83000      -17.38260        5.47017
H         12.47692      -16.54523        3.18755
H         10.85787      -16.92140        2.58554
H         11.20458      -19.34309        3.11368
H         12.78872      -18.98609        3.79738
H         13.57653      -18.15229        1.55689
H         11.99622      -18.51161        0.86208
H         12.29556      -20.94295        1.41954
H         13.85925      -20.59195        2.14739
H         13.16000      -20.14531       -0.82999
H         14.14968      -21.46762       -0.18421
H         14.73574      -19.79712       -0.09157
H          8.60804      -12.44956        3.83095
H         10.24180      -11.93434        3.38246
H          9.29837      -10.47780        1.55975
H          7.64844      -10.80407        2.14837
