88

C         -1.01967       -7.88631       -6.19554
C          0.36266       -8.39518       -5.78083
C          1.47589       -7.35952       -5.97340
C          2.86064       -7.86505       -5.55849
C          3.97802       -6.83151       -5.73407
C          5.35005       -7.34397       -5.28524
C          6.48314       -6.32576       -5.45012
C          7.83371       -6.84897       -4.95003
C          8.98519       -5.84862       -5.09687
C         10.31664       -6.39795       -4.57135
C         11.47789       -5.40617       -4.69463
C         12.81800       -5.89828       -4.13013
N         13.36763       -7.06082       -4.85611
C         14.05187       -6.99831       -6.07714
C         14.50422       -5.73329       -6.72697
C         15.84226       -5.21506       -6.15250
C         16.33465       -3.94307       -6.84794
C         17.69288       -3.46444       -6.32357
C         18.21384       -2.20913       -7.03153
C         19.59017       -1.75726       -6.53260
C         20.11862       -0.50376       -7.23948
C         21.49964       -0.06722       -6.74450
C         14.29952       -8.29779       -6.43954
N         13.77798       -9.10373       -5.45572
C         13.21303       -8.35713       -4.49751
C         12.56483       -8.89396       -3.26455
C         12.56883      -10.42402       -3.17218
O         13.06937      -11.17414       -3.99937
O         11.94048      -10.79915       -2.06576
C         11.84807      -12.24648       -1.78474
C         13.02983      -12.72113       -0.95533
C         12.86709      -14.19071       -0.53703
C         14.03657      -14.69311        0.31309
H         -1.79432       -8.64884       -6.03641
H         -1.04112       -7.60886       -7.25995
H         -1.30758       -6.99559       -5.61740
H          0.60926       -9.30377       -6.35621
H          0.33857       -8.70695       -4.72269
H          1.23057       -6.45084       -5.39558
H          1.50189       -7.04457       -7.03161
H          3.10759       -8.77039       -6.14096
H          2.82781       -8.18734       -4.50255
H          3.72516       -5.91993       -5.16462
H          4.02871       -6.52155       -6.79256
H          5.59917       -8.25966       -5.85032
H          5.29123       -7.65124       -4.22600
H          6.22648       -5.39991       -4.90658
H          6.56975       -6.03925       -6.51260
H          8.08681       -7.77734       -5.49264
H          7.73742       -7.13616       -3.88787
H          8.73707       -4.91811       -4.55861
H          9.09866       -5.56670       -6.15762
H         10.55280       -7.32564       -5.12266
H         10.19038       -6.68206       -3.51097
H         11.23427       -4.47945       -4.15120
H         11.60905       -5.11364       -5.74843
H         12.71674       -6.18902       -3.07590
H         13.57584       -5.10626       -4.17129
H         13.72996       -4.95530       -6.64899
H         14.62216       -5.93370       -7.80189
H         16.59717       -6.01182       -6.25176
H         15.73888       -5.03089       -5.06941
H         15.58585       -3.14117       -6.72514
H         16.40595       -4.12769       -7.93380
H         18.43100       -4.27781       -6.43646
H         17.62056       -3.27015       -5.23903
H         17.48799       -1.38724       -6.90171
H         18.26405       -2.39900       -8.11800
H         20.31377       -2.58127       -6.66450
H         19.54294       -1.56967       -5.44525
H         19.39880        0.32082       -7.10133
H         20.15799       -0.69054       -8.32604
H         21.48606        0.15876       -5.66782
H         21.84857        0.83306       -7.26782
H         22.24960       -0.85613       -6.90559
H         14.80971       -8.69737       -7.30708
H         13.76494      -10.13077       -5.35130
H         11.52000       -8.55650       -3.19348
H         13.06631       -8.50322       -2.36404
H         11.77191      -12.77675       -2.74240
H         10.90230      -12.33433       -1.23667
H         13.11851      -12.08663       -0.05901
H         13.95909      -12.60004       -1.53441
H         12.76708      -14.81898       -1.43710
H         11.92576      -14.30751        0.02453
H         14.98754      -14.62805       -0.23492
H         13.89152      -15.74192        0.60258
H         14.14203      -14.10506        1.23601
