71

C          0.27703      -11.37611       -3.12154
C          1.73729      -11.62985       -3.50517
C          2.61195      -10.37427       -3.41924
C          4.08139      -10.61478       -3.78036
C          4.93288       -9.34239       -3.73369
C          6.41082       -9.56508       -4.07028
C          7.22122       -8.26558       -4.09373
C          8.70714       -8.45697       -4.41394
C          9.46479       -7.12868       -4.51330
C         10.96131       -7.28758       -4.81367
C         11.63107       -5.92793       -4.97862
O         13.07430       -5.97111       -5.05766
C         13.58125       -6.58255       -6.23001
C         15.00513       -6.13203       -6.34272
N         15.47420       -5.08901       -5.57031
C         16.77622       -4.88999       -5.90049
N         17.62301       -3.98229       -5.40637
C         17.35535       -3.13436       -4.24657
C         17.30118       -3.86693       -2.89388
C         18.55564       -4.69129       -2.54484
S         18.26297       -6.46381       -2.73958
O         17.26841       -6.88297       -1.77689
O         18.10468       -6.76627       -4.14480
O         19.70072       -7.06806       -2.31275
N         17.04667       -5.80578       -6.85824
N         15.93791       -6.58477       -7.13345
C         18.35475       -6.19473       -7.38881
C         18.95241       -5.21986       -8.40249
O         19.28684       -4.02182       -7.65686
C         20.18323       -5.81337       -9.07676
H         -0.32729      -12.28987       -3.20366
H         -0.18064      -10.61596       -3.77238
H          0.19367      -11.01498       -2.08552
H          1.78502      -12.03456       -4.53053
H          2.15971      -12.41269       -2.85235
H          2.55162       -9.95774       -2.39795
H          2.19587       -9.59673       -4.08452
H          4.14260      -11.05684       -4.79064
H          4.50792      -11.36876       -3.09546
H          4.85368       -8.88626       -2.73106
H          4.51044       -8.60021       -4.43420
H          6.49244      -10.06326       -5.05234
H          6.85333      -10.26415       -3.33915
H          7.12285       -7.75571       -3.11920
H          6.77757       -7.57948       -4.83673
H          8.81091       -9.00852       -5.36463
H          9.17411       -9.09191       -3.64130
H          9.34358       -6.56801       -3.57034
H          8.99707       -6.50736       -5.29697
H         11.08720       -7.89270       -5.72727
H         11.45670       -7.83441       -3.99481
H         11.43453       -5.29562       -4.10147
H         11.24154       -5.40305       -5.87144
H         13.01940       -6.25799       -7.12818
H         13.54782       -7.68555       -6.19344
H         14.90044       -4.61941       -4.87414
H         18.44761       -3.81261       -5.99375
H         16.41861       -2.56888       -4.39101
H         18.16146       -2.38948       -4.23186
H         16.40681       -4.50495       -2.82265
H         17.16138       -3.09605       -2.12289
H         18.84345       -4.56310       -1.49386
H         19.42281       -4.44914       -3.17463
H         19.61881       -7.44390       -1.41426
H         18.18945       -7.17069       -7.85758
H         19.03800       -6.33116       -6.53593
H         18.18386       -4.97233       -9.15593
H         19.67909       -3.37308       -8.26235
H         20.94064       -6.10154       -8.33509
H         20.63400       -5.08295       -9.76284
H         19.91593       -6.69752       -9.67141
