46

C          0.97032        0.49412        0.37065
C          2.46124        0.20965        0.17279
C          3.21751        0.06420        1.49825
C          4.71315       -0.20953        1.29767
N          5.44290       -0.34566        2.56021
C          6.03903        0.70013        3.17727
O          6.08958        1.83896        2.70807
C          6.68898        0.38168        4.54640
C          8.19348        0.34257        4.48427
C          8.91948       -0.84736        4.48546
Br         8.04278       -2.52833        4.48754
C         10.33350       -0.90394        4.49659
C         11.10878        0.23617        4.48023
C         10.40928        1.48899        4.42210
C          8.96328        1.54269        4.42300
C          8.34459        2.82301        4.34341
C          9.09591        3.96450        4.27062
N         10.46205        3.86892        4.27717
C         11.11100        2.69843        4.34908
C         12.62002        0.18299        4.51692
C         13.25813       -1.20419        4.65343
C         14.78570       -1.12485        4.70970
H          0.45256        0.59701       -0.59197
H          0.81195        1.42501        0.93448
H          0.47874       -0.31800        0.92655
H          2.91740        1.02107       -0.41867
H          2.58623       -0.70946       -0.42400
H          2.77306       -0.75315        2.09180
H          3.10544        0.98399        2.09525
H          5.18258        0.61598        0.74556
H          4.86877       -1.13318        0.72050
H          5.40676       -1.23550        3.04656
H          6.31985       -0.56965        4.94633
H          6.35885        1.17012        5.23638
H         10.80580       -1.88385        4.52551
H          7.26175        2.90384        4.26704
H          8.67941        4.96582        4.19562
H         11.01032        4.72581        4.21787
H         12.19732        2.75078        4.34046
H         12.97207        0.81062        5.35534
H         13.01434        0.66177        3.60202
H         12.95721       -1.83891        3.80457
H         12.88276       -1.69652        5.56502
H         15.19971       -0.66993        3.79816
H         15.22604       -2.12493        4.80885
H         15.12646       -0.52720        5.56764
