57

C          0.86680        1.63211        2.41280
C          2.31348        1.74130        1.94026
S          3.20540        0.22675        2.47507
C          4.76949        0.55904        1.82269
N          5.21953        1.59786        1.16366
N          6.55624        1.32202        0.87499
C          6.81935        0.15675        1.37909
O          5.73416       -0.41431        2.00235
C          8.10962       -0.59138        1.26897
C          8.71314       -1.09275        2.59173
C          7.99055       -2.32450        3.13949
C          8.75364       -2.99717        4.30250
C          8.14737       -4.32865        4.68928
C          6.98074       -4.39498        5.46815
C          6.39398       -5.62598        5.76606
C          6.96027       -6.81174        5.28675
C          8.12296       -6.76116        4.51578
C          8.71197       -5.52708        4.22023
N          7.82799       -3.30022        2.05327
C          7.75878       -2.99964        0.75158
N          7.51226       -3.97182       -0.13356
C          7.36481       -3.86273       -1.56613
C          6.97441       -5.28878       -2.04724
O          6.88775       -6.16341       -1.18906
C          6.71570       -5.53033       -3.47555
C          6.29683       -6.82009       -3.86191
C          6.02846       -7.09630       -5.19746
C          6.17933       -6.09282       -6.16226
C          6.59937       -4.81123       -5.78991
C          6.86462       -4.52702       -4.45263
N          7.97101       -1.73229        0.34140
H          0.31394        2.51974        2.07839
H          0.79557        1.58743        3.50787
H          0.36521        0.74883        1.99499
H          2.82955        2.60645        2.37425
H          2.38852        1.80151        0.84752
H          8.80816        0.11856        0.80476
H          8.68199       -0.28297        3.33130
H          9.77041       -1.33994        2.41285
H          6.98634       -2.04053        3.49640
H          8.74048       -2.30079        5.15379
H          9.80506       -3.13581        4.00796
H          6.53399       -3.47668        5.85638
H          5.49462       -5.66178        6.38172
H          6.50229       -7.77203        5.52445
H          8.58224       -7.68127        4.15287
H          9.63879       -5.49545        3.64171
H          7.68576       -4.26914        2.34076
H          7.33209       -4.94092        0.17386
H          8.30024       -3.55118       -2.06149
H          6.56522       -3.15755       -1.85241
H          6.18619       -7.58683       -3.09540
H          5.70066       -8.09334       -5.49231
H          5.97022       -6.31048       -7.21028
H          6.71839       -4.03484       -6.54545
H          7.19152       -3.52209       -4.18136
H          7.81004       -1.51667       -0.63656
