55

C          6.95377        0.85469        2.07432
C          6.05133       -0.35995        2.00222
O          5.72774       -0.60727        0.61819
C          4.97275       -1.79029        0.40728
C          4.78731       -1.92647       -1.10462
N          6.10113       -1.70089       -1.71233
C          6.48731       -1.85500       -2.98693
N          7.75651       -1.60219       -3.41980
C          7.82567       -1.90592       -4.77124
N          6.66319       -2.33060       -5.18239
N          5.82958       -2.30507       -4.07766
C          4.39612       -2.51009       -4.31527
C          3.67174       -1.19093       -4.60736
O          4.29699       -0.57813       -5.69855
Si         3.98074        0.96044       -6.32673
C          4.15757        2.22847       -4.94829
C          5.30006        1.16712       -7.63441
C          2.24618        0.99216       -7.03872
C          9.06304       -1.71753       -5.57854
C          9.34205       -2.84957       -6.61482
N          8.28949       -2.81073       -7.62372
N         10.65407       -2.54510       -7.18808
N          9.38580       -4.12251       -5.87750
H          7.19320        1.07880        3.12223
H          6.46398        1.73640        1.64109
H          7.89960        0.68021        1.54324
H          5.11463       -0.19530        2.56368
H          6.54615       -1.25422        2.42361
H          3.98190       -1.73527        0.89207
H          5.50889       -2.66957        0.81316
H          4.05634       -1.18388       -1.46462
H          4.42042       -2.93503       -1.33345
H          6.67623       -1.09985       -1.11532
H          8.53541       -1.33022       -2.82802
H          3.94730       -3.03436       -3.46429
H          4.34885       -3.16636       -5.19180
H          3.69204       -0.54591       -3.70567
H          2.61095       -1.43735       -4.80871
H          5.15447        2.18439       -4.48688
H          3.40411        2.09432       -4.15897
H          4.02417        3.24325       -5.35004
H          6.30474        1.12608       -7.19144
H          5.19482        2.13366       -8.14682
H          5.23149        0.37351       -8.39075
H          1.48409        0.80445       -6.26867
H          2.12967        0.23455       -7.82615
H          2.02620        1.97332       -7.48314
H          9.93107       -1.66423       -4.90719
H          9.00103       -0.75792       -6.11521
H          8.48507       -3.47536       -8.37366
H          7.37344       -3.02511       -7.22329
H         10.58754       -1.74668       -7.82421
H         10.98838       -3.34000       -7.73575
H          9.21448       -4.90332       -6.51142
H         10.30921       -4.25905       -5.45971
