108

C          0.56240       -0.76182        0.69193
C          2.08827       -0.78686        0.80278
C          2.66869        0.48279        1.43304
C          4.19631        0.47716        1.54055
C          4.77286        1.75293        2.16212
C          6.30190        1.75673        2.25336
C          6.87982        3.03719        2.86432
C          8.40975        3.04256        2.94292
C          8.99273        4.32172        3.55186
C         10.52211        4.31388        3.64306
C         11.11017        5.58935        4.25465
C         12.63684        5.56094        4.38087
C         13.22227        6.83132        5.00527
C         14.74423        6.78676        5.17813
C         15.31183        8.05410        5.82547
C         16.82127        7.98677        6.08739
C         17.34390        9.26707        6.75831
C         18.83563        9.17169        7.08561
S         19.46092       10.74950        7.77090
C         18.77363       10.78443        9.48707
C         19.23905       12.02531       10.20185
C         18.79524       13.27541        9.73604
C         19.18462       14.45388       10.36717
C         20.02413       14.38669       11.48212
C         20.45921       13.14807       11.95403
C         20.08538       11.94575       11.33254
C         20.55232       10.63185       11.91348
C         21.23724       10.43791        8.05044
C         22.05379       10.74041        6.79011
C         23.55439       10.50338        7.01504
S         23.85569        8.71639        7.20707
C         25.65242        8.69888        7.39907
S         26.55129       10.08017        7.50837
N         26.14370        7.42001        7.41017
C         25.27638        6.26782        7.48348
C         25.18894        5.39957        6.38764
C         24.37699        4.26771        6.46654
C         23.65630        3.99873        7.63504
C         23.75368        4.86205        8.73020
C         24.56679        5.99592        8.66119
C         27.56152        7.14874        7.31854
C         28.17206        6.37240        8.30832
C         29.53080        6.06453        8.20340
C         30.27445        6.52813        7.11587
C         29.65443        7.29784        6.12605
C         28.29822        7.60928        6.22149
H          0.17415       -1.68287        0.23564
H          0.22268        0.08399        0.07563
H          0.09339       -0.65720        1.68176
H          2.52865       -0.92752       -0.19888
H          2.40145       -1.66240        1.39633
H          2.23199        0.62117        2.43804
H          2.34849        1.35921        0.84209
H          4.63076        0.33406        0.53535
H          4.51729       -0.39624        2.13528
H          4.34653        1.89133        3.17138
H          4.44173        2.62578        1.57224
H          6.72604        1.61229        1.24402
H          6.63405        0.88723        2.84761
H          6.46229        3.17869        3.87683
H          6.54188        3.90696        2.27385
H          8.82625        2.89930        1.93029
H          8.74651        2.17249        3.53375
H          8.56924        4.47056        4.56084
H          8.66612        5.19175        2.95551
H         10.94696        4.16353        2.63505
H         10.84490        3.44279        4.24014
H         10.66710        5.75160        5.25304
H         10.80945        6.45949        3.64520
H         13.08433        5.40292        3.38417
H         12.93365        4.68795        4.98831
H         12.75267        7.00034        5.99025
H         12.94920        7.70322        4.38572
H         15.22331        6.62861        4.19665
H         15.01371        5.91121        5.79415
H         14.78927        8.23719        6.78047
H         15.09071        8.92459        5.18435
H         17.36040        7.82146        5.13976
H         17.04360        7.11729        6.72884
H         16.76627        9.44507        7.67924
H         17.16518       10.12956        6.09658
H         19.43898        9.01095        6.17919
H         19.06932        8.37574        7.80809
H         19.06734        9.84813        9.97659
H         17.68659       10.78201        9.32492
H         18.12886       13.32427        8.87117
H         18.82841       15.41585        9.99873
H         20.33398       15.30036       11.99025
H         21.10370       13.10442       12.83379
H         21.24026       10.80617       12.74874
H         21.08440       10.00463       11.18269
H         19.71124       10.03844       12.30346
H         21.35413        9.40104        8.39677
H         21.50208       11.12450        8.86914
H         21.91019       11.79409        6.50828
H         21.70527       10.12774        5.94379
H         23.92691       11.03181        7.90329
H         24.13037       10.86674        6.15466
H         25.76253        5.61425        5.48547
H         24.31050        3.59102        5.61399
H         23.02987        3.10814        7.69643
H         23.21124        4.64160        9.65063
H         24.66545        6.66736        9.51481
H         27.58647        6.01057        9.15377
H         30.00732        5.46221        8.97722
H         31.33496        6.28801        7.03525
H         30.22925        7.65719        5.27198
H         27.81227        8.21373        5.45658
