64

C          0.97342        1.54527        1.14111
C          2.33311        0.99379        0.72197
C          2.43849        0.74496       -0.81221
C          2.30210       -0.69689       -1.31303
S          3.73309       -1.74973       -0.72221
C          2.71342       -2.70646        0.21035
N          1.43101       -2.46067        0.11436
C          1.00831       -1.45874       -0.88900
C          0.25591       -2.15412       -2.03284
C         -0.34179       -1.12358       -3.00166
C         -1.51195       -1.60972       -3.86889
C         -1.19624       -2.29427       -5.25627
C         -0.38522       -3.64736       -5.35015
C         -0.87029       -4.98212       -4.65325
C         -2.28413       -5.62456       -4.95601
C         -2.69174       -6.09201       -6.41158
C         -1.86669       -7.19597       -7.18997
C         -1.67611       -8.61312       -6.53152
F         -2.84777       -9.10650       -6.09954
F         -1.16470       -9.44201       -7.45499
F         -0.81790       -8.54957       -5.49455
F         -2.53955       -7.38481       -8.35198
F         -0.63513       -6.70072       -7.47801
F         -3.96527       -6.54187       -6.29001
F         -2.69929       -4.99456       -7.21209
F         -2.37269       -6.70327       -4.13387
F         -3.22665       -4.72601       -4.57329
F          0.08656       -5.90180       -4.92171
F         -0.85609       -4.75813       -3.30177
F         -0.21308       -3.90110       -6.66381
F          0.85580       -3.39935       -4.80755
F         -2.36549       -2.46043       -5.91182
F         -0.43563       -1.39336       -5.95129
F         -2.34362       -2.42263       -3.14791
F         -2.23854       -0.49951       -4.21445
O          3.29060        1.95251        1.14386
C          4.62578        1.44269        1.31235
C          5.46437        2.49238        1.98572
C          5.28372        2.76583        3.34988
C          6.04106        3.75489        3.97683
C          6.98965        4.47854        3.24610
C          7.17836        4.20964        1.88868
C          6.41571        3.22079        1.26177
H          0.14498        0.87923        0.85802
H          0.80218        2.51971        0.66338
H          0.94155        1.68712        2.22773
H          2.52947        0.04281        1.26478
H          3.39981        1.14579       -1.16600
H          1.66843        1.33552       -1.33612
H          2.39450       -0.71404       -2.40741
H          3.09364       -3.49082        0.86761
H          0.74279       -2.99888        0.64084
H          0.32923       -0.75638       -0.38272
H         -0.56027       -2.74732       -1.59528
H          0.92747       -2.85587       -2.54457
H          0.41459       -0.69042       -3.67042
H         -0.77576       -0.28889       -2.42901
H          5.07250        1.17439        0.33450
H          4.57776        0.52027        1.92559
H          4.54244        2.20300        3.92096
H          5.89726        3.96102        5.03786
H          7.58385        5.24924        3.73791
H          7.91836        4.77020        1.31716
H          6.56101        3.01290        0.19934
