57

C          0.84948       -1.24762       -0.26891
C          2.23048       -0.90851       -0.83297
C          2.65233        0.53867       -0.55541
C          4.02558        0.88698       -1.14189
C          4.41692        2.33104       -0.87886
O          5.71165        2.58231       -1.46034
C          6.15057        3.91947       -1.31627
C          7.54838        3.99502       -1.93795
C          8.10727        5.41779       -2.03847
C          7.71907        6.03211       -3.38372
N          8.24254        5.20809       -4.49168
C          7.98483        3.88900       -4.41723
N          8.21941        3.02250       -5.43684
C          7.99044        3.24016       -6.87160
C          6.79865        2.40524       -7.36139
C          6.59427        2.52689       -8.86367
F          6.36923        3.81570       -9.23502
F          7.68437        2.09361       -9.55152
F          5.53404        1.79214       -9.26984
N          7.48673        3.38270       -3.27508
C          9.30986        5.79190       -5.32690
C          8.85970        6.94480       -6.22332
C         10.09194        7.68256       -6.78141
N         10.80160        8.36560       -5.69908
O          8.04453        6.40014       -7.25916
H          0.57815       -2.29095       -0.47733
H          0.07091       -0.60714       -0.70870
H          0.81798       -1.10730        0.82149
H          2.23882       -1.08542       -1.92180
H          2.98356       -1.59274       -0.40790
H          2.66069        0.71185        0.53440
H          1.89053        1.22272       -0.96818
H          4.01811        0.71103       -2.23050
H          4.79530        0.22334       -0.71626
H          4.46390        2.53636        0.20679
H          3.67806        3.02552       -1.32238
H          6.21868        4.21264       -0.25121
H          5.45534        4.62123       -1.82170
H          8.21672        3.37037       -1.32305
H          9.20274        5.40642       -1.94970
H          7.72307        6.02962       -1.21026
H          8.13884        7.03763       -3.49312
H          6.62584        6.11227       -3.48478
H          8.27945        2.05032       -5.14527
H          8.89873        2.95787       -7.42370
H          7.80899        4.30620       -7.04791
H          5.86683        2.72650       -6.87564
H          6.94609        1.33581       -7.14776
H          6.96576        2.50766       -3.30597
H          9.75446        4.99894       -5.94018
H         10.09115        6.18977       -4.65888
H          8.27569        7.66764       -5.61924
H          9.74607        8.35181       -7.59296
H         10.76606        6.94889       -7.24925
H         10.40060        9.28527       -5.51533
H         11.78020        8.51662       -5.93833
H          7.76853        7.11308       -7.85806
