44

C          0.64993        0.26323        0.02142
C          2.17689        0.25063        0.12398
C          2.84127        1.46539       -0.53437
C          4.36867        1.46366       -0.41657
C          5.03967        2.67823       -1.06681
C          6.56430        2.67733       -0.91409
C          7.24867        3.88595       -1.56294
C          8.76979        3.87906       -1.37312
C          9.44685        5.09553       -2.01348
N         10.91040        5.14726       -1.80833
C         11.78401        4.65782       -2.71632
N         13.06439        5.04286       -2.66602
N         11.35859        3.78134       -3.64709
I         12.38050        3.23070       -5.32943
C         11.43347        5.76389       -0.59747
O         12.07784        6.97850       -0.94951
C         12.57814        7.68955        0.19752
H          0.20777       -0.61827        0.50512
H          0.31899        0.26627       -1.02784
H          0.22376        1.15518        0.50414
H          2.57053       -0.67143       -0.33650
H          2.47444        0.20760        1.18551
H          2.44095        2.38938       -0.08095
H          2.55501        1.50478       -1.60032
H          4.76905        0.53983       -0.87009
H          4.65014        1.42155        0.65044
H          4.62965        3.60323       -0.62528
H          4.77765        2.71262       -2.13880
H          6.97481        1.74884       -1.34846
H          6.82208        2.64854        0.15894
H          6.83369        4.81605       -1.13801
H          7.00919        3.91195       -2.64034
H          9.19080        2.94542       -1.78963
H          9.01127        3.85447       -0.29751
H          9.04372        6.02761       -1.59238
H          9.25338        5.14145       -3.09578
H         13.27229        5.92381       -2.19265
H         13.75486        4.60244       -3.26463
H         10.46204        3.32403       -3.51469
H         12.14429        5.07552       -0.10159
H         10.58197        5.94358        0.07923
H         13.06284        8.59119       -0.18973
H         13.31247        7.08455        0.75461
H         11.75313        7.97676        0.86860
