130

C          1.78140        0.08466       -0.57997
C          3.30917        0.11424       -0.48508
C          4.00601       -0.45193       -1.72752
C          5.53590       -0.42878       -1.64424
C          6.22522       -0.97210       -2.90006
C          7.75610       -0.95792       -2.82613
C          8.42649       -1.45543       -4.11055
C          9.95863       -1.46024       -4.06110
C         10.58810       -1.90540       -5.38399
C         12.12071       -1.94711       -5.37249
C         12.68387       -2.41719       -6.71882
C         14.19073       -2.60579       -6.72372
O         14.55808       -3.18472       -7.99408
C         15.91912       -3.50211       -8.11182
C         16.17291       -4.27214       -9.39660
O         15.87931       -3.50730      -10.50944
C         15.86847       -4.39886      -11.62899
C         15.00535       -5.56702      -11.13985
N         15.34220       -5.61928       -9.63942
C         14.10517       -5.91713       -8.81891
C         14.39677       -6.39787       -7.40148
C         13.08091       -6.46800       -6.61186
C         13.31217       -6.83040       -5.14264
S         11.74796       -6.64456       -4.24136
O         11.39263       -5.24306       -4.21697
O         10.81688       -7.64977       -4.69517
Cl        12.36491       -7.16370       -2.32957
C         15.22013       -6.90903      -11.82479
C         14.70912       -6.87964      -13.27364
C         15.01415       -8.18576      -14.01074
S         14.58531       -8.11110      -15.76586
C         16.01868       -7.26032      -16.45818
S         17.33743       -6.80619      -15.53109
N         15.90960       -7.04901      -17.78645
C         14.72442       -7.43088      -18.56986
C         13.67785       -6.31267      -18.66719
C         12.42983       -6.74798      -19.44111
C         11.37383       -5.64180      -19.54380
C         10.10046       -6.07223      -20.27933
C          9.04686       -4.96378      -20.37499
C          7.76322       -5.39221      -21.09530
C          6.71785       -4.27730      -21.18516
C         16.99209       -6.39677      -18.54283
C         17.97257       -7.40263      -19.15691
C         19.04310       -6.71939      -20.01403
C         19.99970       -7.71285      -20.68228
C         21.06057       -7.04586      -21.56422
C         21.97947       -8.04423      -22.27624
C         23.05288       -7.38266      -23.14760
C         23.94947       -8.38835      -23.87429
H          1.31238        0.49627        0.32438
H          1.40881       -0.94272       -0.70854
H          1.42291        0.67405       -1.43717
H          3.63434       -0.45327        0.40339
H          3.64848        1.15104       -0.32035
H          3.68081        0.11761       -2.61643
H          3.66482       -1.48909       -1.89500
H          5.86259       -1.01233       -0.76542
H          5.87559        0.60597       -1.46149
H          5.89952       -0.38187       -3.77504
H          5.87971       -2.00384       -3.08917
H          8.08780       -1.57660       -1.97390
H          8.10195        0.06775       -2.60755
H          8.09421       -0.82695       -4.95596
H          8.06998       -2.47583       -4.33651
H         10.29906       -2.12818       -3.25121
H         10.32194       -0.45080       -3.80028
H         10.24872       -1.23379       -6.19212
H         10.20956       -2.90996       -5.64069
H         12.45694       -2.62748       -4.57227
H         12.52204       -0.94959       -5.12575
H         12.41033       -1.70796       -7.51583
H         12.21150       -3.37830       -6.98472
H         14.50852       -3.28760       -5.90947
H         14.72281       -1.64718       -6.58526
H         16.29129       -4.09182       -7.25042
H         16.55896       -2.59874       -8.17597
H         17.22024       -4.63605       -9.40527
H         16.89277       -4.72420      -11.88886
H         15.42900       -3.86982      -12.48010
H         13.94874       -5.26597      -11.17700
H         16.00571       -6.39231       -9.49646
H         13.56324       -6.69302       -9.37895
H         13.51376       -4.99604       -8.81522
H         15.08157       -5.70764       -6.89004
H         14.88885       -7.38457       -7.42263
H         12.39680       -7.19883       -7.06853
H         12.58641       -5.48665       -6.66469
H         14.01909       -6.15148       -4.64629
H         13.63233       -7.87029       -4.99622
H         14.70058       -7.70633      -11.26597
H         16.29662       -7.15530      -11.82320
H         15.20869       -6.06762      -13.82231
H         13.62623       -6.68002      -13.28895
H         14.42800       -9.03011      -13.61777
H         16.08692       -8.42444      -13.95035
H         14.28303       -8.34019      -18.13498
H         15.07768       -7.71553      -19.57224
H         14.13022       -5.43133      -19.15081
H         13.39460       -6.00036      -17.64934
H         11.98663       -7.63206      -18.95012
H         12.71714       -7.07629      -20.45511
H         11.81236       -4.76567      -20.05269
H         11.10875       -5.29898      -18.52798
H          9.66338       -6.94840      -19.76872
H         10.36304       -6.41574      -21.29522
H          9.48102       -4.09050      -20.89334
H          8.79290       -4.61357      -19.35837
H          7.32979       -6.26368      -20.57583
H          8.01677       -5.74229      -22.11028
H          6.41895       -3.92806      -20.18533
H          5.81010       -4.61708      -21.70204
H          7.10689       -3.40765      -21.73525
H         17.51540       -5.71672      -17.85824
H         16.51509       -5.79389      -19.33093
H         17.41727       -8.12949      -19.77345
H         18.44576       -7.97534      -18.34399
H         19.61934       -6.01518      -19.38957
H         18.55506       -6.10655      -20.79256
H         19.41492       -8.42391      -21.29197
H         20.49719       -8.31920      -19.90572
H         21.66970       -6.36073      -20.94849
H         20.56134       -6.41072      -22.31715
H         21.36776       -8.71829      -22.90203
H         22.46800       -8.69252      -21.52701
H         23.67397       -6.72347      -22.51728
H         22.56630       -6.72207      -23.88514
H         24.46630       -9.05063      -23.16358
H         24.71775       -7.88255      -24.47520
H         23.36469       -9.02687      -24.55330
