49

C          0.76889        0.14130        0.51652
C          2.29267        0.00014        0.49411
C          2.80473       -0.83097       -0.68801
C          4.33053       -0.96757       -0.72541
C          4.83791       -1.79708       -1.91013
C          6.36622       -1.91228       -1.95406
C          6.86617       -2.73696       -3.14693
C          8.39584       -2.80393       -3.17121
N          8.90505       -3.60216       -4.30121
N          9.07326       -4.94665       -4.16725
C          9.47759       -5.35410       -5.34814
N          9.56486       -4.31808       -6.24371
C          9.19468       -3.21003       -5.55049
Br         9.09751       -1.49357       -6.22091
C         10.06526       -4.39014       -7.63460
C         11.57842       -4.11986       -7.72673
C         12.03624       -4.22185       -9.16471
C         12.54323       -5.42896       -9.66593
C         12.93246       -5.53148      -11.00316
C         12.81501       -4.42932      -11.85387
C         12.31028       -3.22220      -11.36287
C         11.92264       -3.12054      -10.02570
H          0.43392        0.74072        1.37383
H          0.27667       -0.84007        0.58591
H          0.39899        0.63252       -0.39574
H          2.63516       -0.45998        1.43628
H          2.75571        1.00083        0.46129
H          2.45585       -0.37448       -1.63121
H          2.34780       -1.83560       -0.65221
H          4.68061       -1.42472        0.21636
H          4.78612        0.03754       -0.76188
H          4.47910       -1.34731       -2.85240
H          4.39608       -2.80743       -1.86718
H          6.72785       -2.36793       -1.01674
H          6.80755       -0.90142       -1.99428
H          6.50479       -2.29160       -4.08864
H          6.46389       -3.76095       -3.09819
H          8.79639       -3.29032       -2.27305
H          8.84566       -1.80503       -3.25540
H          9.71382       -6.38390       -5.59751
H          9.49301       -3.66669       -8.22937
H          9.82012       -5.39424       -8.00326
H         12.11350       -4.84935       -7.10032
H         11.79536       -3.11910       -7.32308
H         12.65040       -6.29143       -9.00366
H         13.33461       -6.47236      -11.37987
H         13.12267       -4.51048      -12.89648
H         12.22615       -2.35631      -12.02009
H         11.54059       -2.16973       -9.64540
