76

C          1.25497       -2.31165        0.57613
C          2.62401       -2.89853        0.92377
C          3.08916       -2.53824        2.33907
C          4.45862       -3.13169        2.68885
C          4.91781       -2.74968        4.08572
O          6.19688       -3.36153        4.34232
C          6.74623       -3.01802        5.60263
C          8.08571       -3.74316        5.71064
N          8.86019       -3.45807        4.50376
C         10.17951       -3.66574        4.33482
N         10.81038       -3.24925        3.23201
C         10.43808       -2.11226        2.41661
C         11.42325       -0.94683        2.63342
O         12.30682       -0.96299        3.46561
O         11.13228        0.04203        1.77997
C         11.97575        1.24640        1.80567
C         12.83487        1.30957        0.55357
C         13.64166        2.61273        0.48811
C         14.47178        2.73773       -0.79360
C         15.27078        4.04229       -0.87552
C         16.07246        4.17357       -2.17197
N         10.88167       -4.32044        5.28773
C         12.32030       -4.16850        5.55075
C         13.17580       -5.39256        5.20907
C         13.48503       -5.54651        3.71478
O         13.08982       -4.72931        2.86930
N         14.25028       -6.62942        3.41769
C         14.78323       -7.07059        2.17654
C         14.70176       -6.32569        0.99011
C         15.28064       -6.84026       -0.17259
C         15.93265       -8.07526       -0.17097
C         16.00910       -8.81183        1.01484
C         15.43796       -8.31369        2.18339
H          0.95341       -2.57840       -0.44555
H          1.26173       -1.21390        0.64526
H          0.47709       -2.68235        1.25960
H          3.37404       -2.54502        0.19634
H          2.59397       -3.99610        0.82099
H          2.33828       -2.88868        3.06790
H          3.12378       -1.43959        2.43997
H          5.20961       -2.78804        1.95814
H          4.42131       -4.23025        2.61376
H          4.19398       -3.09516        4.84723
H          5.01169       -1.65128        4.18450
H          6.09148       -3.33672        6.43429
H          6.89303       -1.92297        5.68060
H          7.90350       -4.82751        5.81084
H          8.62779       -3.38641        6.59839
H          8.27912       -3.33162        3.67530
H         11.75217       -3.67277        3.07665
H          9.42805       -1.75800        2.66089
H         10.43321       -2.38485        1.35153
H         12.57796        1.22806        2.72288
H         11.26399        2.08180        1.84786
H         12.18614        1.22764       -0.33310
H         13.51740        0.44449        0.53572
H         14.30798        2.67962        1.36507
H         12.95400        3.47320        0.55883
H         13.80190        2.66587       -1.66823
H         15.16318        1.88032       -0.86838
H         15.95183        4.10558       -0.01036
H         14.57915        4.89621       -0.78103
H         16.79425        3.35057       -2.28032
H         16.63548        5.11599       -2.20221
H         15.41187        4.15253       -3.05140
H         10.34107       -4.83569        5.97408
H         12.42959       -3.95449        6.62339
H         12.67175       -3.28271        5.00474
H         12.70666       -6.31295        5.59263
H         14.13312       -5.29214        5.74607
H         14.49401       -7.22499        4.20527
H         14.19923       -5.36321        0.98355
H         15.22159       -6.25823       -1.09299
H         16.38125       -8.46174       -1.08608
H         16.51579       -9.77705        1.03317
H         15.49933       -8.89209        3.10894
