90

C          3.66188        2.21377       -1.63736
C          4.12365        2.62450       -0.23716
C          4.20769        1.44350        0.73554
C          4.65119        1.88563        2.13597
N          4.76181        0.77956        3.09790
C          3.74492        0.36549        3.88610
S          3.85502       -0.91963        4.95024
S          2.24924        1.35858        3.67731
C          1.24302        0.77366        5.05857
C         -0.24696        0.75061        4.73562
C         -0.99620        0.19936        5.97855
C         -2.47072        0.45031        5.91920
C         -3.34828       -0.48336        5.38461
C         -4.71521       -0.18241        5.31194
N         -5.22860        0.95663        5.74835
N         -4.37027        1.83877        6.27289
C         -3.02174        1.68201        6.37049
C         -2.17708        2.77279        6.93681
C         -1.87929        2.61035        8.44948
C         -0.73087        3.51256        8.91876
S          0.94605        2.83007        8.68335
C          1.59513        3.77616        7.29608
S          0.64493        4.64405        6.23637
N          2.95149        3.68389        7.22074
C          3.72333        2.84720        8.12071
C          3.83802        1.47547        7.87515
C          4.63814        0.69385        8.71049
C          5.31729        1.28069        9.78015
C          5.20451        2.65608       10.01354
C          4.41284        3.44633        9.18144
C          3.73290        4.47886        6.29985
C          3.65904        5.87551        6.34553
C          4.46898        6.63323        5.50102
C          5.35711        6.00304        4.62415
C          5.43755        4.60887        4.59940
C          4.62749        3.83988        5.43658
C         -5.04709        3.08240        6.71629
O         -4.82850        4.03869        5.72144
C         -5.45264        5.29470        6.02924
C          6.07737        0.12246        3.18743
C          6.94192        0.71292        4.30831
C          8.27308       -0.02531        4.47818
C          9.10748        0.52744        5.63626
H          3.61507        3.07911       -2.31200
H          2.66122        1.75798       -1.61045
H          4.34774        1.48014       -2.08579
H          3.43457        3.38263        0.17185
H          5.10954        3.11538       -0.30232
H          4.91288        0.68907        0.34942
H          3.22764        0.94545        0.80728
H          3.96115        2.64126        2.54146
H          5.64055        2.36472        2.08388
H          1.41683        1.43241        5.91910
H          1.63441       -0.23034        5.30375
H         -0.45482        0.11712        3.86045
H         -0.60593        1.76300        4.49232
H         -0.56633        0.66091        6.87909
H         -0.81700       -0.88207        6.05813
H         -2.98213       -1.44434        5.02036
H         -5.44377       -0.87758        4.89314
H         -2.63372        3.75024        6.74257
H         -1.21830        2.80360        6.39201
H         -1.65029        1.56124        8.68992
H         -2.78343        2.86230        9.02755
H         -0.79937        3.66030       10.00519
H         -0.75074        4.49547        8.42454
H          3.33822        1.01772        7.02245
H          4.73773       -0.37260        8.50567
H          5.94459        0.66890       10.42898
H          5.74086        3.11486       10.84439
H          4.32440        4.52068        9.34442
H          2.97339        6.36105        7.03851
H          4.41359        7.72162        5.53650
H          5.99376        6.59894        3.96987
H          6.14073        4.11409        3.92927
H          4.69430        2.75334        5.42718
H         -4.62925        3.38053        7.69494
H         -6.10920        2.81267        6.82899
H         -5.22249        5.95928        5.19106
H         -5.04614        5.72355        6.96068
H         -6.54497        5.18237        6.12160
H          6.56646        0.23866        2.20912
H          5.90950       -0.94847        3.36194
H          6.37255        0.65885        5.24995
H          7.13032        1.78157        4.10950
H          8.85266        0.03082        3.54158
H          8.06878       -1.09538        4.64766
H          9.35667        1.58765        5.48140
H         10.05128       -0.02266        5.74830
H          8.56223        0.45183        6.58879
