65

C          0.79869        0.14341        0.11750
C          2.32843        0.13686        0.05936
C          2.90745       -1.19761       -0.42266
C          4.43817       -1.22593       -0.48311
C          4.99942       -2.56846       -0.96173
C          6.52954       -2.61862       -1.02576
C          7.06431       -3.97032       -1.50953
C          8.59254       -4.04661       -1.58444
C          9.09515       -5.40746       -2.07944
C         10.62424       -5.49534       -2.17094
C         11.07714       -6.84542       -2.69262
O         12.52955       -6.86486       -2.73623
C         13.03153       -8.04984       -3.25213
N         14.49884       -7.92453       -3.19725
N         15.28610       -8.96792       -3.55996
C         16.52449       -8.53677       -3.39582
N         16.50841       -7.23044       -2.92325
C         15.21130       -6.87405       -2.81554
C         17.67068       -6.35879       -2.65126
C         18.27932       -5.73165       -3.91330
C         17.46060       -4.60875       -4.52891
F         16.19907       -5.09262       -4.93651
C         17.74308       -9.34210       -3.68090
C         17.54405      -10.87369       -3.50329
O         18.65114      -11.53517       -4.10625
C         17.33872      -11.28587       -2.04993
H          0.41141        1.11078        0.46566
H          0.42191       -0.63089        0.80247
H          0.36070       -0.05232       -0.87273
H          2.73690        0.37055        1.05722
H          2.67639        0.94539       -0.60575
H          2.49914       -1.43052       -1.42217
H          2.55460       -2.00687        0.24109
H          4.84814       -0.99258        0.51538
H          4.79335       -0.42124       -1.15083
H          4.58716       -2.79931       -1.95985
H          4.63817       -3.37126       -0.29501
H          6.94623       -2.39430       -0.02809
H          6.89544       -1.81888       -1.69346
H          6.64178       -4.19150       -2.50542
H          6.69337       -4.76750       -0.84166
H          9.02189       -3.83624       -0.58941
H          8.96864       -3.25256       -2.25273
H          8.65560       -5.61583       -3.07012
H          8.72100       -6.19894       -1.40748
H         11.07176       -5.32520       -1.17836
H         11.00842       -4.70666       -2.83754
H         10.68828       -7.02961       -3.71029
H         10.73248       -7.66540       -2.03680
H         12.75624       -8.22226       -4.31005
H         12.76211       -8.94305       -2.65726
H         14.81311       -5.91921       -2.49509
H         18.41371       -6.97526       -2.12986
H         17.33360       -5.58922       -1.94393
H         18.47855       -6.50883       -4.66625
H         19.25916       -5.31431       -3.63239
H         17.95881       -4.19773       -5.41794
H         17.27662       -3.79334       -3.81107
H         18.57728       -9.00115       -3.04769
H         18.05036       -9.16945       -4.72511
H         16.66555      -11.16935       -4.09747
H         19.32570      -11.70887       -3.43004
H         18.21275      -11.01445       -1.43563
H         17.19568      -12.37180       -1.98547
H         16.45334      -10.80693       -1.60982
