60

C          1.98448       -0.33767       -1.63656
C          2.74647        0.32459       -0.50668
O          3.44432        1.53743       -0.96979
C          4.66174        1.34749       -1.49092
O          5.25695        0.29559       -1.57854
N          5.19223        2.59775       -1.93928
C          4.30060        3.74765       -2.22555
C          4.12694        3.88842       -3.74102
C          5.50973        4.16989       -4.34491
N          6.57547        3.49964       -3.57932
C          6.43191        2.65732       -2.54377
N          7.48799        1.96912       -2.12095
C          7.80921        1.50323       -0.76730
C          9.13956        0.73757       -0.84993
O          9.96677        1.52491       -1.72002
C         11.13322        0.85308       -2.25704
C         11.53302        1.56048       -3.52210
C         12.30679        2.72920       -3.47097
C         12.64597        3.40565       -4.64430
C         12.21983        2.91622       -5.88296
C         11.45176        1.74982       -5.94487
C         11.10776        1.07822       -4.76892
C          9.74271        0.52467        0.53333
C          3.07482        4.95190       -4.09386
C          2.76674        5.07981       -5.59230
C          1.48182        5.86509       -5.86321
O          1.15279        5.88986       -7.23955
O          3.86347        5.66036       -6.32807
H          1.41736       -1.18826       -1.23395
H          2.66274       -0.72276       -2.40843
H          1.26830        0.35653       -2.09537
H          3.49205       -0.34510       -0.06095
H          2.07990        0.70782        0.27430
H          4.75036        4.65112       -1.78549
H          3.35081        3.56025       -1.72216
H          3.76616        2.91467       -4.11559
H          5.72486        5.24854       -4.32047
H          5.56463        3.85371       -5.39481
H          7.53029        3.69844       -3.86588
H          8.35334        2.03085       -2.67563
H          7.02898        0.83429       -0.38972
H          7.90972        2.37173       -0.09545
H          8.95350       -0.24024       -1.33670
H         10.88052       -0.20187       -2.46260
H         11.94506        0.87766       -1.51167
H         12.65156        3.10535       -2.50562
H         13.25634        4.30829       -4.59416
H         12.50029        3.43479       -6.80047
H         11.13498        1.35380       -6.91052
H         10.52363        0.15610       -4.82030
H          9.99908        1.48779        0.99588
H         10.65166       -0.08722        0.47816
H          9.03344       -0.00189        1.18746
H          3.38331        5.93607       -3.69804
H          2.14165        4.68820       -3.56982
H          2.65189        4.07630       -6.03590
H          1.58840        6.89236       -5.45033
H          0.63194        5.39313       -5.34778
H          1.95586        6.13431       -7.73105
H          3.93546        6.59585       -6.06891
