129

C          6.66024        0.01205       -6.81499
C          7.80504       -0.36261       -5.87065
C          8.19698        0.76557       -4.91061
C          9.36039        0.40868       -3.98062
C          9.74888        1.53581       -3.01913
C         10.93212        1.19012       -2.10986
C         11.33335        2.32664       -1.16495
C         12.52991        1.99189       -0.26913
C         12.94498        3.14216        0.65282
C         14.15677        2.82258        1.53367
C         14.59146        3.99330        2.42028
C         15.81506        3.68974        3.29048
C         16.27435        4.88609        4.12926
C         17.51371        4.60417        4.98416
C         17.98084        5.82264        5.78600
C         19.23776        5.57006        6.62368
C         19.68237        6.80342        7.41668
C         20.94225        6.56894        8.25913
C         21.43539        7.80920        9.02258
C         20.42764        8.23392       10.09566
N         20.87364        9.37869       10.90392
N         21.27299        9.23457       12.14520
N         21.61621       10.41597       12.61775
C         21.41534       11.32508       11.64871
N         20.95868       10.68534       10.54289
C         20.70226       11.25866        9.20349
C         19.34163       10.97181        8.56026
C         18.10095       11.22111        9.42269
S         17.97322       12.90803       10.07797
C         17.88983       12.62818       11.86986
S         18.11448       11.13268       12.57563
N         17.62305       13.75914       12.55536
C         17.40555       15.09024       11.97172
C         18.39816       16.08419       12.58335
O         18.30730       16.11552       14.00017
C         18.52623       14.82440       14.56563
C         17.54168       13.78867       14.02407
C         21.66432       12.78564       11.77689
C         22.03427       13.19859       13.20903
C         22.31650       14.69884       13.32185
C         22.67156       15.13864       14.74654
C         22.92188       16.64535       14.86695
C         23.37340       17.08890       16.26305
C         23.66004       18.59175       16.35338
C         24.22662       19.04227       17.70423
C         24.51413       20.54664       17.76366
C         25.17233       21.00859       19.06787
C         25.46739       22.51291       19.09978
C         26.15823       22.97537       20.38523
H          6.40057       -0.81880       -7.48552
H          6.92817        0.87453       -7.44393
H          5.75239        0.28338       -6.25524
H          8.68867       -0.65752       -6.46218
H          7.52425       -1.25491       -5.28557
H          7.31784        1.04969       -4.30509
H          8.46101        1.66491       -5.49523
H         10.23950        0.13117       -4.58905
H          9.10092       -0.49399       -3.39970
H          8.87598        1.80282       -2.39738
H          9.99115        2.44283       -3.60094
H         11.80041        0.91267       -2.73349
H         10.68837        0.29035       -1.51780
H         10.46931        2.59982       -0.53366
H         11.56681        3.22753       -1.75980
H         13.38877        1.70558       -0.90163
H         12.29468        1.10080        0.33912
H         12.09108        3.42376        1.29414
H         13.16754        4.03440        0.04092
H         15.00312        2.51954        0.89217
H         13.93033        1.94639        2.16640
H         13.74887        4.29605        3.06690
H         14.80950        4.86811        1.78214
H         16.64744        3.35752        2.64543
H         15.59106        2.83788        3.95613
H         15.44663        5.21482        4.78252
H         16.48437        5.73794        3.45820
H         18.33578        4.25889        4.33321
H         17.30359        3.76879        5.67453
H         17.16248        6.15739        6.44848
H         18.17015        6.66107        5.09215
H         20.06134        5.24275        5.96629
H         19.05570        4.73480        7.32159
H         18.84049        7.11908        8.05922
H         19.86440        7.63892        6.71624
H         21.76067        6.23308        7.60411
H         20.77079        5.74467        8.97188
H         21.60854        8.62981        8.30785
H         22.39745        7.59884        9.51280
H         20.29250        7.44282       10.84424
H         19.44020        8.47983        9.68863
H         21.51606       10.92666        8.54373
H         20.81475       12.33764        9.36199
H         19.29676        9.94200        8.17613
H         19.32243       11.60989        7.66280
H         18.06651       10.57276       10.31958
H         17.19896       11.03643        8.82555
H         16.37201       15.40026       12.19686
H         17.52156       15.06171       10.88245
H         18.17792       17.10097       12.23279
H         19.42676       15.81734       12.26670
H         18.39797       14.93474       15.65008
H         19.56141       14.49094       14.36569
H         16.51095       14.05983       14.30411
H         17.76452       12.78654       14.40605
H         20.76070       13.32198       11.43863
H         22.47091       13.07133       11.07835
H         22.91371       12.62569       13.53924
H         21.21471       12.90804       13.88523
H         21.43864       15.27047       12.97210
H         23.14072       14.97230       12.64011
H         23.56773       14.58858       15.08170
H         21.86253       14.84241       15.43745
H         22.00373       17.19132       14.58625
H         23.68911       16.94407       14.13092
H         24.28201       16.52770       16.54385
H         22.60564       16.81239       17.00668
H         22.73476       19.15431       16.13662
H         24.37344       18.86952       15.55723
H         25.15802       18.48510       17.90950
H         23.52632       18.76708       18.51247
H         23.57300       21.10408       17.61120
H         25.16592       20.82195       16.91533
H         26.11339       20.45018       19.21899
H         24.52526       20.74428       19.92308
H         24.52454       23.07006       18.96585
H         26.09603       22.77381       18.23120
H         25.54098       22.76362       21.27117
H         26.35516       24.05615       20.36926
H         27.12288       22.46484       20.52638
