89

C          0.54145        0.18570       -0.01593
C          2.06956        0.10156       -0.05306
C          2.64164       -0.99767        0.84907
C          4.17054       -1.08553        0.81567
C          4.74793       -2.17894        1.71996
C          6.27708       -2.25889        1.68054
C          6.86395       -3.35127        2.57940
C          8.39347       -3.42023        2.53604
C          8.98725       -4.51063        3.43219
C         10.51684       -4.57358        3.38901
C         11.10881       -5.67404        4.27352
C         12.63863       -5.73466        4.24153
C         13.21761       -6.86503        5.09600
C         14.74774       -6.91894        5.10136
C         15.30232       -8.09785        5.90469
C         16.83089       -8.13461        5.98645
C         17.35188       -9.35962        6.74248
C         18.87173       -9.38137        6.92375
C         19.35171      -10.63239        7.66682
C         20.86329      -10.61788        7.92852
C         21.38707      -11.71292        8.88051
C         21.00449      -13.10130        8.34417
N         21.41792      -14.14885        9.34638
C         20.73304      -13.95683       10.67390
C         21.07199      -12.57116       11.22285
N         20.75874      -11.56279       10.20848
C         20.23807      -12.29332       12.47755
O         20.54085      -13.30227       13.41492
C         19.84652      -13.13712       14.65386
C         22.92839      -11.63100        9.08789
O         23.57691      -12.66717        9.27238
C         23.60460      -10.29253        9.17395
H          0.16452        0.98472       -0.66935
H          0.17749        0.39004        1.00223
H          0.08133       -0.75779       -0.34605
H          2.49975        1.07315        0.24414
H          2.40463       -0.07046       -1.09012
H          2.21276       -1.97166        0.55320
H          2.30783       -0.82626        1.88795
H          4.59774       -0.10970        1.10733
H          4.50286       -1.25977       -0.22306
H          4.32345       -3.15608        1.42887
H          4.41791       -2.00571        2.75955
H          6.70021       -1.28153        1.97293
H          6.60614       -2.42868        0.64004
H          6.44578       -4.33043        2.28589
H          6.53550       -3.18421        3.62053
H          8.81064       -2.44058        2.82923
H          8.72148       -3.58632        1.49465
H          8.57375       -5.49124        3.13681
H          8.65823       -4.34747        4.47375
H         10.93132       -3.59647        3.69405
H         10.84673       -4.72754        2.34642
H         10.69948       -6.65114        3.96113
H         10.77223       -5.52697        5.31503
H         13.05035       -4.76835        4.58254
H         12.97897       -5.85545        3.19803
H         12.82103       -7.83072        4.73529
H         12.85512       -6.76132        6.13406
H         15.14598       -5.97409        5.51122
H         15.11839       -6.97743        4.06299
H         14.93858       -9.04122        5.46032
H         14.88767       -8.06904        6.92796
H         17.19371       -7.21551        6.47905
H         17.25784       -8.12186        4.96852
H         17.03329      -10.27472        6.21279
H         16.87182       -9.40434        7.73614
H         19.18711       -8.48189        7.48104
H         19.36757       -9.31886        5.93971
H         19.07104      -11.51827        7.07278
H         18.81552      -10.71604        8.62511
H         21.13464       -9.64059        8.35916
H         21.41611      -10.68833        6.97695
H         21.52178      -13.31898        7.40132
H         19.92085      -13.17427        8.19981
H         22.45894      -13.97346        9.43921
H         21.24783      -15.09276        8.98194
H         21.07543      -14.73962       11.35934
H         19.65191      -14.06074       10.50239
H         22.13869      -12.57770       11.52838
H         20.87085      -10.61476       10.56967
H         19.16021      -12.28437       12.21769
H         20.49449      -11.28768       12.86984
H         20.15147      -13.96917       15.29717
H         18.75337      -13.16963       14.50633
H         20.11856      -12.18330       15.13718
H         23.01591       -9.55409        9.73436
H         23.73125       -9.88473        8.15791
H         24.59313      -10.41218        9.62871
