51

C          1.89539        3.24102       -0.68750
C          2.30690        2.24879       -1.48424
C          2.76296        0.89806       -0.99016
C          4.26226        0.71250       -1.01162
N          5.01299        1.81975       -1.08748
N          6.33862        1.93190       -1.08346
C          7.01764        0.78406       -0.97361
C          6.33810       -0.45195       -0.87982
C          4.94864       -0.52626       -0.90743
C          4.20181       -1.81951       -0.86977
C          3.79554       -2.34460       -2.29364
C          4.97799       -3.03572       -3.00788
N          4.74660       -3.44208       -4.37500
C          4.75655       -2.38493       -5.38201
C          4.46132       -2.97200       -6.75308
O          3.13409       -3.50768       -6.69973
O          2.66829       -3.19812       -2.19233
C          8.51548        0.88673       -0.95538
C          9.21099        0.09944       -2.08653
C          8.85345        0.58744       -3.49191
C          9.61805       -0.15918       -4.58843
N          9.25280        0.35992       -5.90830
H          1.56347        4.19500       -1.09761
H          1.85019        3.12904        0.39857
H          2.31588        2.39278       -2.56946
H          2.30499        0.09451       -1.58694
H          2.42532        0.73347        0.04840
H          4.51107        2.71729       -1.15265
H          6.92325       -1.36838       -0.77940
H          3.26996       -1.70746       -0.29915
H          4.80969       -2.58672       -0.36601
H          3.44687       -1.49414       -2.90337
H          5.24562       -3.92658       -2.40646
H          5.85973       -2.37227       -2.98915
H          3.88650       -3.98651       -4.46347
H          5.75820       -1.92302       -5.40170
H          4.01903       -1.57569       -5.19112
H          5.19794       -3.76207       -6.98004
H          4.54149       -2.17877       -7.51747
H          2.95747       -3.99037       -7.52104
H          2.94841       -4.05165       -1.81739
H          8.86943        0.50946        0.01852
H          8.78171        1.95112       -1.00811
H          8.98695       -0.97657       -1.98873
H         10.29589        0.19204       -1.92620
H          9.06334        1.66419       -3.58949
H          7.76874        0.46987       -3.67165
H          9.45506       -1.25064       -4.46790
H         10.69726        0.00975       -4.44920
H          8.32001        0.04617       -6.17958
H          9.89363        0.01768       -6.62368
