80

C          0.70591       -1.40340        0.74862
C          2.18701       -1.01753        0.73333
C          2.98110       -1.61385        1.90098
C          4.46459       -1.22869        1.88987
C          5.24270       -1.78609        3.08806
C          6.70906       -1.38734        3.07062
O          7.33525       -1.88550        4.26476
C          8.70830       -1.57098        4.35584
C          9.23689       -2.11780        5.70110
C          8.35185       -1.61692        6.89096
N          7.51526       -2.78086        7.23384
C          7.91937       -3.86140        6.53116
N          7.33703       -5.06503        6.60620
C          7.77356       -6.19980        5.79004
C          6.67487       -7.26371        5.74809
C          7.03561       -8.52549        4.95229
C          6.62334       -8.58320        3.42850
C          7.17688       -7.53387        2.38387
C          8.71967       -7.37498        2.06970
C          9.60750       -8.57791        1.55500
C          9.28105       -9.33745        0.20610
C          9.23803       -8.57837       -1.18275
C         10.51594       -7.79411       -1.66236
F         11.61750       -8.55446       -1.56082
F         10.34112       -7.44299       -2.94552
F         10.69113       -6.67157       -0.93527
F          8.99354       -9.54177       -2.10413
F          8.19454       -7.70907       -1.17701
F         10.22526      -10.30671        0.11399
F          8.06894       -9.93109        0.34854
F         10.86775       -8.07155        1.45096
F          9.61476       -9.52165        2.52761
F          8.80717       -6.36205        1.17375
F          9.33108       -6.94945        3.22231
F          6.54377       -7.78029        1.21752
F          6.78097       -6.29109        2.82028
F          6.90460       -9.82237        2.96743
F          5.26818       -8.40782        3.39781
F          8.37324       -8.80606        5.05470
F          6.36246       -9.57869        5.51061
N          8.97187       -3.57519        5.77584
C         10.72163       -1.79963        5.83382
C         11.13816       -0.65221        6.51849
C         12.48506       -0.29890        6.61095
C         13.44529       -1.10625        6.00574
C         13.06321       -2.24944        5.30110
C         11.71059       -2.59148        5.20049
O         11.26713       -3.69236        4.49452
C         12.22830       -4.48894        3.78287
H          0.16642       -0.95426       -0.09587
H          0.21376       -1.06592        1.67286
H          0.57485       -2.49368        0.68305
H          2.28192        0.08116        0.75652
H          2.64296       -1.33952       -0.21804
H          2.88768       -2.71410        1.88298
H          2.52663       -1.28721        2.85316
H          4.55324       -0.12865        1.87731
H          4.92623       -1.58137        0.95155
H          5.17061       -2.88633        3.10715
H          4.79033       -1.42184        4.02557
H          6.81665       -0.28639        3.03265
H          7.22369       -1.80419        2.18396
H          8.88044       -0.47679        4.34036
H          9.28387       -2.01575        3.52206
H          7.72179       -0.77179        6.59119
H          8.96017       -1.33567        7.76009
H          6.53829       -2.66054        7.47620
H          6.71485       -5.23599        7.38992
H          8.70110       -6.63442        6.19400
H          7.98159       -5.81485        4.78601
H          5.73880       -6.84867        5.35074
H          6.46999       -7.62561        6.76746
H          9.57859       -4.22250        5.27602
H         10.39585       -0.00563        6.98838
H         12.77599        0.59963        7.15344
H         14.50278       -0.85101        6.07416
H         13.82451       -2.86715        4.82919
H         12.76048       -3.88568        3.03349
H         11.64699       -5.26790        3.27882
H         12.94791       -4.95510        4.47201
