102

C          2.78102        1.65908        1.22843
C          3.20939        0.41401        0.44207
C          3.30161        0.62523       -1.08235
N          2.08608        1.10924       -1.78156
C          1.85819        2.56989       -1.81699
C          2.15118        3.10136       -3.22000
C          1.17933        2.45016       -4.19680
N          0.94863        1.05042       -3.81464
C          1.52524        0.39742       -2.78802
N          1.52358       -0.96238       -2.78884
C          1.46157       -1.70599       -4.05627
C          2.67922       -1.48271       -4.95836
O          2.48183       -2.33815       -6.05990
C          3.48890       -2.23611       -7.07003
C          3.22592       -3.35900       -8.06432
O          4.12634       -3.16208       -9.14269
C          4.11386       -4.09448      -10.16079
C          4.98747       -3.84540      -11.22792
C          5.04360       -4.72803      -12.29878
C          4.23899       -5.88339      -12.35843
C          3.38888       -6.11277      -11.27273
C          3.31101       -5.23611      -10.18271
C          4.33351       -6.83867      -13.55908
C          4.12336       -6.09042      -14.91589
C          2.77055       -5.45786      -15.36649
C          1.73157       -6.51968      -15.78392
C          2.14627       -4.52747      -14.30920
C          3.10052       -4.61481      -16.61847
C          5.77892       -7.40287      -13.59529
C          3.38871       -8.04478      -13.41201
C          1.18407       -1.72122       -1.56195
C         -0.23281       -2.30429       -1.59658
C         -0.60398       -2.98952       -0.27596
N         -1.92016       -3.60288       -0.38594
C         -2.40848       -4.16923        0.88717
C         -3.65224       -4.99716        0.68298
C         -4.92736       -4.48916        0.95769
C         -6.07879       -5.25983        0.78260
C         -5.96230       -6.57294        0.32074
C         -4.70456       -7.10302        0.03060
C         -3.56003       -6.31868        0.20591
O         -2.29904       -6.79703       -0.08368
C          4.57109       -0.10961        0.92327
H          1.76487        1.98932        0.97270
H          3.47301        2.50052        1.06675
H          2.78428        1.44183        2.30476
H          2.46335       -0.37378        0.63667
H          3.60318       -0.31312       -1.56583
H          4.09642        1.36295       -1.29336
H          2.51177        3.02584       -1.06897
H          0.81937        2.78164       -1.51943
H          3.19356        2.86601       -3.48391
H          2.04229        4.19248       -3.26024
H          1.56080        2.48207       -5.22849
H          0.20880        2.96849       -4.18303
H          0.33331        0.50335       -4.40751
H          0.53229       -1.52152       -4.62385
H          1.43485       -2.77042       -3.79465
H          3.60660       -1.73413       -4.40529
H          2.76390       -0.42583       -5.28300
H          4.49640       -2.34140       -6.62846
H          3.43339       -1.25524       -7.57768
H          2.17609       -3.31564       -8.40726
H          3.38973       -4.33657       -7.57726
H          5.61492       -2.95397      -11.20049
H          5.73144       -4.49992      -13.11436
H          2.74673       -6.99227      -11.25881
H          2.62138       -5.46348       -9.37095
H          4.42120       -6.79713      -15.70985
H          4.87737       -5.28722      -14.95252
H          1.33558       -7.08354      -14.93112
H          2.16074       -7.24153      -16.49468
H          0.87599       -6.03646      -16.27854
H          1.83248       -5.07261      -13.40944
H          1.25645       -4.03284      -14.72717
H          2.84826       -3.74359      -13.99111
H          3.54711       -5.23291      -17.41178
H          3.81109       -3.80934      -16.38026
H          2.19064       -4.15214      -17.02813
H          6.52161       -6.61212      -13.76854
H          5.88319       -8.14262      -14.40238
H          6.02569       -7.89365      -12.64355
H          2.34161       -7.75613      -13.26083
H          3.68881       -8.67728      -12.56389
H          3.43270       -8.66676      -14.31636
H          1.27018       -1.03425       -0.71457
H          1.93690       -2.51263       -1.42235
H         -0.32764       -3.03681       -2.41417
H         -0.96215       -1.50514       -1.80103
H         -0.64702       -2.23610        0.52984
H          0.19607       -3.70833        0.01537
H         -1.88648       -4.35617       -1.07663
H         -2.63793       -3.33065        1.56348
H         -1.63446       -4.78945        1.38468
H         -5.01069       -3.46448        1.32581
H         -7.05898       -4.84197        1.01049
H         -6.85020       -7.19103        0.18463
H         -4.60752       -8.12946       -0.33310
H         -2.37304       -7.73168       -0.33547
H          5.36468        0.63660        0.76435
H          4.86456       -1.02986        0.39842
H          4.54089       -0.33393        1.99700
