56

N          0.85878        0.91488        1.93811
C          2.06158        0.36675        1.30298
C          2.67571        1.39353        0.34872
C          3.98310        0.91995       -0.29079
C          4.63072        1.98346       -1.18516
C          5.96258        1.50635       -1.77942
C          6.87812        2.53791       -2.47051
C          6.47420        3.12934       -3.83418
C          5.30643        4.09869       -3.68072
N          5.54124        4.97625       -2.53017
C          6.49990        4.80665       -1.60817
N          6.68914        5.80044       -0.71178
N          7.21118        3.66491       -1.54999
C          8.52936        3.60025       -0.93931
O          9.46389        3.94856       -1.92885
C         10.83178        3.64743       -1.56837
C         11.71426        4.01182       -2.74354
C          6.20295        2.06431       -4.90970
C          6.49510        2.53483       -6.35618
C          7.94427        2.25683       -6.81978
N          9.05211        2.85026       -6.07885
O          5.56893        1.95114       -7.27394
H          0.53185        0.29895        2.68244
H          0.09362        0.98204        1.26497
H          1.89367       -0.58434        0.75677
H          2.78550        0.14203        2.10307
H          2.84228        2.32742        0.91067
H          1.94398        1.63692       -0.44228
H          3.80528        0.00310       -0.87845
H          4.69749        0.63783        0.50241
H          4.78902        2.89268       -0.58095
H          3.92106        2.25627       -1.98261
H          5.78456        0.68840       -2.49512
H          6.55576        1.05446       -0.96661
H          7.84382        2.04145       -2.64640
H          7.34867        3.72335       -4.14854
H          4.35771        3.56035       -3.53709
H          5.19941        4.72885       -4.57533
H          4.88343        5.73313       -2.37252
H          6.39123        6.74299       -0.92830
H          7.32864        5.68746        0.06243
H          8.67899        2.56582       -0.57934
H          8.59881        4.26124       -0.05496
H         10.91081        2.57267       -1.32110
H         11.10803        4.22404       -0.66664
H         11.44338        3.43243       -3.63679
H         12.76345        3.79492       -2.50335
H         11.63255        5.08069       -2.97942
H          5.14949        1.74841       -4.87118
H          6.80348        1.16292       -4.69695
H          6.30541        3.62120       -6.42930
H          8.02126        2.58101       -7.86831
H          8.09128        1.16063       -6.82058
H          9.03409        3.86921       -6.09673
H          9.10400        2.54222       -5.10959
H          5.87057        1.05457       -7.49717
