68

C          2.13460        1.20759       -0.96952
C          3.62411        0.91080       -0.79418
C          4.05413        0.58551        0.65754
C          3.32485       -0.58871        1.28983
C          3.27256       -1.90478        0.74600
C          3.97853       -2.34086       -0.51012
C          3.01804       -2.49690       -1.70937
C          3.73867       -2.83238       -3.01957
S          5.03070       -1.65592       -3.51511
C          4.07990       -0.29758       -4.22427
S          2.43433       -0.38522       -4.46502
N          4.85204        0.76894       -4.54550
C          6.29702        0.88012       -4.32069
C          6.58467        2.10642       -3.44793
O          6.04152        3.29495       -4.00451
C          4.63358        3.17920       -4.21714
C          4.28858        1.99697       -5.12051
C          2.51279       -2.85047        1.42765
C          1.83626       -2.48737        2.59076
N          1.93245       -1.27792        3.12095
N          2.68234       -0.38101        2.47711
C          2.72410        0.90471        3.24170
C          1.64328        1.89027        2.78897
C          1.57071        3.10956        3.73011
C          0.64190        4.17255        3.18738
C          1.15974        5.30371        2.53986
C          0.30848        6.27369        2.00470
C         -1.07653        6.12004        2.10622
C         -1.60438        4.99722        2.75086
C         -0.75087        4.03165        3.28832
C          5.58280        0.43973        0.79001
O          5.86503        0.21775        2.17154
H          1.90655        1.35228       -2.03285
H          1.83004        2.11541       -0.43010
H          1.49906        0.38103       -0.61767
H          4.20612        1.79830       -1.08624
H          3.93719        0.11951       -1.48608
H          3.79827        1.47313        1.24635
H          4.45903       -3.30968       -0.29942
H          4.78052       -1.65022       -0.78905
H          2.43116       -1.58042       -1.85731
H          2.29138       -3.30023       -1.50662
H          3.01330       -2.88577       -3.84336
H          4.27979       -3.78876       -2.95645
H          6.79759        0.98711       -5.29687
H          6.68474       -0.02332       -3.83678
H          7.66794        2.26730       -3.36567
H          6.17464        1.93369       -2.43154
H          4.31417        4.12063       -4.68252
H          4.10904        3.06939       -3.24705
H          4.72337        2.14486       -6.12259
H          3.20431        1.86649       -5.21632
H          2.44849       -3.87455        1.05719
H          1.20833       -3.18208        3.14975
H          3.73882        1.31161        3.17251
H          2.54989        0.59435        4.27770
H          0.67085        1.37511        2.76549
H          1.84038        2.23868        1.76506
H          2.57767        3.53810        3.85618
H          1.23927        2.78147        4.72814
H          2.24260        5.43531        2.47083
H          0.72748        7.15487        1.51712
H         -1.74334        6.87749        1.69293
H         -2.68464        4.87726        2.84183
H         -1.17329        3.16413        3.80149
H          6.03723        1.37860        0.42785
H          5.97006       -0.38278        0.16505
H          6.82535        0.17422        2.29924
