45

S          5.72865        0.89557       -0.23629
C          4.73959       -0.20974       -1.00982
N          4.44701       -0.17905       -2.32798
C          3.62772       -1.16328       -3.04847
C          4.49233       -1.86208       -4.10336
O          5.07898       -0.92614       -4.99715
C          5.87287        0.03154       -4.30029
C          5.06039        0.78864       -3.24873
S          3.93676       -1.58402       -0.15835
C          4.30113       -1.30187        1.59972
C          5.40517       -2.22631        2.13741
C          6.77836       -1.81468        1.60539
N          7.77166       -2.95295        1.50175
Si         9.19434       -2.49587        0.28079
C          9.90888       -0.90306        0.92809
C         10.36158       -3.95103        0.35063
C          8.32926       -2.33098       -1.36550
C          8.22655       -3.45316        2.83955
H          2.79794       -0.62751       -3.53672
H          3.19648       -1.89560       -2.35680
H          3.87704       -2.53608       -4.71388
H          5.27832       -2.45850       -3.59648
H          6.25658        0.72650       -5.05813
H          6.73232       -0.47054       -3.81234
H          4.25224        1.36120       -3.73114
H          5.68978        1.47218       -2.66861
H          3.35394       -1.49411        2.11983
H          4.56107       -0.23694        1.70773
H          5.17585       -3.26273        1.83470
H          5.38087       -2.20566        3.23752
H          7.24132       -1.03947        2.22826
H          6.66893       -1.38961        0.59903
H          7.26781       -3.72661        1.04572
H         10.25164       -0.97942        1.96854
H          9.19951       -0.06915        0.84249
H         10.78878       -0.65011        0.31776
H         10.90206       -4.02072        1.30343
H         11.11551       -3.82430       -0.44069
H          9.85550       -4.90786        0.15978
H          7.67674       -1.44825       -1.40614
H          7.74039       -3.22252       -1.62431
H          9.09675       -2.21384       -2.14531
H          8.79070       -2.65939        3.34233
H          8.86537       -4.33254        2.70847
H          7.35963       -3.72432        3.45226
