67

C          9.30754       14.80976        5.58403
C          8.66326       13.45956        5.90632
C          9.10220       12.33541        4.96141
C          8.47445       10.97833        5.29277
C          8.92549        9.84661        4.36398
C          8.35226        8.48086        4.75308
C          8.82212        7.33843        3.84548
C          8.35528        5.97184        4.35600
C          8.69176        4.78002        3.45284
N         10.13236        4.63345        3.16089
N         10.64365        5.26774        2.06124
C         11.91813        4.97325        2.06289
N         12.25859        4.19656        3.14063
C         11.09891        3.97640        3.84115
N         11.04385        3.21695        4.98154
N         11.26672        1.81836        4.88516
N         10.15223        3.66218        5.97434
C         13.63023        3.77905        3.55588
O         13.85989        2.42256        3.40248
C         14.08327        1.96327        2.03401
C         15.41106        2.41448        1.43929
C         16.64215        1.97384        2.23891
C         17.96467        2.38743        1.58503
C         19.19874        1.95961        2.38601
C         20.52467        2.36248        1.73040
C         21.75276        1.94096        2.54107
H          8.97452       15.59069        6.28092
H          9.05252       15.14236        4.56689
H         10.40463       14.75462        5.64764
H          7.56502       13.55562        5.86983
H          8.90572       13.17378        6.94409
H         10.20279       12.24472        4.99126
H          8.85139       12.61285        3.92234
H          7.37442       11.06387        5.25707
H          8.72120       10.71021        6.33547
H         10.02875        9.79031        4.36857
H          8.63952       10.08543        3.32487
H          7.24967        8.52470        4.74414
H          8.63622        8.25481        5.79605
H          9.92397        7.36059        3.78838
H          8.46340        7.50345        2.81576
H          7.25747        5.96523        4.45642
H          8.76182        5.78228        5.35936
H          8.22735        4.88299        2.46381
H          8.35214        3.83442        3.89337
H         12.62655        5.30369        1.30961
H         12.26905        1.61907        4.85992
H         10.83286        1.43694        4.04025
H         10.66347        3.70797        6.85886
H          9.40056        2.97630        6.08856
H         13.72114        4.01070        4.62531
H         14.31654        4.41644        2.97622
H         13.23024        2.27123        1.40393
H         14.05134        0.86980        2.12861
H         15.42440        3.50949        1.29289
H         15.45095        1.99397        0.42014
H         16.61799        0.87704        2.36027
H         16.59098        2.38911        3.25907
H         17.97973        3.48361        1.44959
H         18.01978        1.95797        0.56960
H         19.18045        0.86472        2.52768
H         19.14587        2.39513        3.39966
H         20.53808        3.45548        1.58099
H         20.57824        1.91965        0.72159
H         21.75036        2.40052        3.54054
H         22.68417        2.23904        2.04160
H         21.78549        0.85011        2.67912
