60

C          7.20314        7.25190       -5.72715
C          7.13181        5.74200       -5.96660
C          7.64482        4.91735       -4.77994
C          7.62626        3.40722       -5.04042
C          8.16971        2.60399       -3.87031
O          8.18274        1.21670       -4.23660
C          8.72860        0.37337       -3.25078
C          8.76363       -1.03652       -3.84135
N          9.59369       -1.14488       -5.03972
C         10.91205       -1.36334       -5.04494
N         11.59398       -1.55493       -3.89265
C         13.05125       -1.72955       -3.78130
C         13.59865       -2.89081       -4.59584
C         12.95868       -4.13851       -4.52426
C         13.42242       -5.22571       -5.26091
C         14.54168       -5.06995       -6.08390
C         15.18821       -3.83655       -6.15096
C         14.74080       -2.72661       -5.41340
C         15.50110       -1.42221       -5.50353
N         11.58270       -1.41784       -6.22025
C         10.96951       -1.69034       -7.52904
C         10.33217       -0.46233       -8.20397
C          9.95544       -0.73259       -9.68293
N          8.64713       -1.40248       -9.71744
O          9.13918       -0.06428       -7.51967
H          6.83539        7.81377       -6.59619
H          8.23620        7.57748       -5.53408
H          6.59579        7.54919       -4.85956
H          7.71745        5.48302       -6.86504
H          6.09184        5.44998       -6.18943
H          7.03808        5.14907       -3.88734
H          8.67386        5.23653       -4.53759
H          8.22858        3.17120       -5.93312
H          6.59943        3.07130       -5.25698
H          7.54696        2.74463       -2.96575
H          9.20015        2.92588       -3.61886
H          8.11403        0.36149       -2.32802
H          9.74722        0.71339       -2.96310
H          7.74424       -1.31588       -4.13998
H          9.08200       -1.77394       -3.08888
H          9.21861       -0.73363       -5.92323
H         11.10855       -1.29578       -3.04252
H         13.24805       -1.89467       -2.71204
H         13.55699       -0.79036       -4.05084
H         12.08212       -4.25252       -3.88322
H         12.91866       -6.18985       -5.18970
H         14.91616       -5.91188       -6.66687
H         16.06990       -3.72468       -6.78468
H         16.32694       -1.51064       -6.21892
H         15.93600       -1.13279       -4.53528
H         14.87231       -0.58118       -5.83679
H         12.54401       -1.74287       -6.13281
H         10.22216       -2.49676       -7.43057
H         11.78490       -2.06630       -8.16234
H         11.04618        0.37429       -8.15166
H         10.75863       -1.28505      -10.19784
H          9.85300        0.23833      -10.18385
H          8.72604       -2.41848       -9.73311
H          8.10173       -1.12774      -10.53139
H          8.42922       -0.49759       -8.06970
