57

N          0.51696       -0.70599        0.01819
C          1.96029       -0.53142       -0.14611
C          2.37223        0.90105        0.20036
C          3.88998        1.10095        0.15954
C          4.30294        2.54325        0.48882
C          5.81030        2.81859        0.65190
C          6.48759        2.03778        1.83735
C          5.66604        1.71436        3.09792
C          5.32857        2.97177        3.90505
O          4.51741        2.62714        5.04057
C          3.17333        2.48096        4.77926
O          2.70579        2.64628        3.66917
C          2.41390        2.08612        6.01917
C          1.11296        2.88662        6.20315
C          0.31085        2.40582        7.41317
C          7.06374        0.86109        1.14513
N          7.12751        1.03321       -0.13211
C          6.63741        2.36594       -0.58682
C          7.83710        3.24460       -0.98148
C          7.39475        4.56260       -1.62419
C          8.58074        5.44057       -2.02714
C          8.11785        6.81148       -2.52127
O          6.97673        7.19860       -2.45477
O          9.08622        7.61238       -3.04322
H          0.25053       -1.68124       -0.11561
H          0.00241       -0.16534       -0.67863
H          2.33812       -0.78167       -1.16116
H          2.45761       -1.22808        0.55002
H          1.98836        1.15334        1.20075
H          1.89109        1.60250       -0.50313
H          4.26999        0.80311       -0.83477
H          4.34486        0.39023        0.87488
H          3.77956        2.86450        1.40266
H          3.93764        3.21233       -0.30810
H          5.95074        3.89626        0.80382
H          7.37874        2.61323        2.17358
H          6.24052        1.02842        3.73914
H          4.73418        1.20505        2.82303
H          4.79788        3.71380        3.29146
H          6.23428        3.42902        4.32715
H          3.07111        2.17603        6.89446
H          2.17179        1.01416        5.90777
H          0.51124        2.80464        5.28641
H          1.36288        3.95335        6.31764
H          0.01342        1.35266        7.30327
H         -0.60483        2.99832        7.53704
H          0.89036        2.49198        8.34390
H          7.43445       -0.05694        1.60830
H          7.53525        0.34860       -0.77210
H          5.99719        2.20325       -1.46666
H          8.46981        2.68208       -1.68881
H          8.46078        3.43986       -0.09251
H          6.75386        5.13708       -0.93984
H          6.77601        4.35856       -2.51175
H          9.18605        4.95455       -2.81044
H          9.25680        5.60302       -1.16944
H          9.95001        7.16328       -3.04052
