63

C          0.84246        4.51670        7.94331
C          1.34761        3.31895        8.75113
N          0.34670        2.24490        8.92088
C          0.14951        1.34628        7.92784
S          1.03854        1.29452        6.51813
S         -1.20977        0.19847        8.27791
C         -1.10842       -1.03032        6.93876
C         -2.23520       -0.89357        5.90941
C         -2.10160        0.37671        5.05516
C         -3.43941        0.98298        4.63372
O         -4.24042        0.14193        3.83024
C         -3.75042       -0.00064        2.50386
C         -4.63732       -0.98856        1.76502
C         -4.19124       -1.25215        0.31762
C         -4.86111       -2.47789       -0.32292
C         -6.37096       -2.32037       -0.53725
S         -7.03908       -3.82050       -1.28806
O         -6.54070       -3.94331       -2.64260
O         -6.90733       -4.88916       -0.33068
O         -8.61586       -3.43129       -1.37012
N         -3.76145        1.32593        1.85417
C         -3.50633        2.41921        2.59924
N         -3.59258        3.64824        2.04348
N         -3.18735        2.25023        3.87394
N         -4.24794        1.30905        5.82490
N         -3.53522        2.39926        6.50912
N         -5.56111        1.75817        5.56737
C         -0.35405        2.20036       10.21584
C         -1.52066        3.18333       10.34157
H          1.64331        5.26382        7.86060
H         -0.02140        4.99718        8.41970
H          0.56240        4.20921        6.92766
H          1.63905        3.63259        9.76279
H          2.22521        2.87721        8.26072
H         -1.15168       -2.00566        7.44053
H         -0.11095       -0.89971        6.48740
H         -3.20666       -0.89159        6.42375
H         -2.22772       -1.78792        5.26728
H         -1.49133        0.19497        4.15876
H         -1.54185        1.15000        5.60236
H         -2.70615       -0.35834        2.52355
H         -5.67711       -0.62854        1.81820
H         -4.59843       -1.92453        2.34168
H         -3.10192       -1.41605        0.29879
H         -4.37704       -0.36921       -0.32007
H         -4.67360       -3.36436        0.30210
H         -4.38427       -2.67064       -1.29448
H         -6.61158       -1.49361       -1.22077
H         -6.93202       -2.19062        0.39874
H         -8.84735       -3.38252       -2.31797
H         -4.28033        1.43634        0.98848
H         -3.51812        3.75389        1.03841
H         -3.36550        4.46552        2.59761
H         -2.96047        3.01975        4.51642
H         -2.95029        1.94160        7.22427
H         -4.28642        2.87677        7.01507
H         -6.17044        0.94311        5.52644
H         -5.64353        2.27386        4.68196
H          0.39963        2.40765       10.98997
H         -0.69825        1.17174       10.38463
H         -1.18639        4.22623       10.27538
H         -2.00982        3.05026       11.31591
H         -2.27300        3.01093        9.55995
