81

C          0.48808       -0.56442       -0.18476
C          1.97728       -0.22198       -0.10193
C          2.70370       -0.37386       -1.44155
C          4.19555       -0.03243       -1.38242
C          4.90545       -0.19436       -2.72950
C          6.39919        0.14307       -2.69564
C          7.08971       -0.06021       -4.04755
C          8.58459        0.27371       -4.04536
C          9.26016        0.00034       -5.39246
C         10.75721        0.32362       -5.42169
C         11.41589       -0.03637       -6.75638
C         12.91605        0.26679       -6.82390
C         13.53758       -0.16164       -8.15627
C         15.04087        0.11402       -8.27205
C         15.59485       -0.32427       -9.63232
C         17.09422       -0.05300       -9.79177
N         17.58936       -0.35999      -11.14616
C         18.01785       -1.55332      -11.57912
N         18.39774       -1.71080      -12.87578
C         18.89056       -3.02937      -13.25655
O         19.72395       -3.54901      -12.22651
C         19.01134       -3.76952      -11.02409
N         18.07173       -2.63162      -10.78911
C         18.19078       -5.07685      -11.01469
C         18.98602       -6.35278      -11.25454
O         19.84138       -6.56153      -10.13756
C         20.54146       -7.79139      -10.19745
C         21.46270       -7.88111       -8.98462
F         20.78195       -7.80079       -7.82158
F         22.12204       -9.06279       -9.01077
F         22.39004       -6.88667       -8.98723
C         20.01255       -3.70083       -9.80573
O         19.50949       -3.46243       -8.72363
C         21.48086       -3.83873      -10.05330
H         -0.00880       -0.44844        0.78829
H          0.33676       -1.60328       -0.51428
H         -0.03029        0.08804       -0.90327
H          2.46375       -0.86638        0.64970
H          2.09914        0.81241        0.26141
H          2.21320        0.26820       -2.19459
H          2.58179       -1.41005       -1.80418
H          4.68789       -0.67362       -0.63011
H          4.31962        1.00478       -1.02444
H          4.40719        0.44299       -3.48125
H          4.77733       -1.23292       -3.08293
H          6.89865       -0.48076       -1.93350
H          6.53243        1.18870       -2.36692
H          6.58168        0.55436       -4.81157
H          6.95452       -1.10906       -4.36620
H          9.08981       -0.31463       -3.25925
H          8.72491        1.33341       -3.76937
H          8.74829        0.57928       -6.18136
H          9.11561       -1.06222       -5.65706
H         11.26503       -0.22061       -4.60618
H         10.90749        1.39680       -5.21138
H         10.90134        0.50095       -7.57251
H         11.25667       -1.11087       -6.95593
H         13.43310       -0.24669       -5.99479
H         13.08349        1.34638       -6.66759
H         13.01370        0.35223       -8.98123
H         13.35634       -1.24019       -8.30795
H         15.57802       -0.40844       -7.46209
H         15.23333        1.19058       -8.12609
H         15.05511        0.20922      -10.43281
H         15.39356       -1.39752       -9.78814
H         17.69679       -0.61433       -9.06113
H         17.31790        1.00832       -9.61378
H         17.34977        0.31113      -11.87122
H         18.77594       -0.89900      -13.35473
H         19.50173       -2.93872      -14.15984
H         18.03638       -3.69754      -13.44948
H         17.83462       -2.53564       -9.79890
H         17.40403       -5.00008      -11.78016
H         17.68271       -5.14433      -10.04068
H         19.57604       -6.28828      -12.18934
H         18.27830       -7.19528      -11.36225
H         21.16836       -7.86877      -11.10431
H         19.85170       -8.65324      -10.16612
H         21.70518       -4.62975      -10.77671
H         21.99342       -4.02112       -9.10389
H         21.84856       -2.89365      -10.48655
