58

O          4.19520       -4.13293       -4.64632
C          2.97083       -3.81799       -3.95739
C          2.99388       -2.34734       -3.60400
O          4.05997       -2.13668       -2.67609
C          4.57370       -0.81486       -2.59977
C          6.02079       -0.95622       -2.12585
N          6.70249       -1.89696       -3.02522
C          7.83513       -1.65296       -3.69572
N          8.10729       -2.15428       -4.91657
C          9.45894       -1.73159       -5.34297
C          9.84879       -0.68506       -4.28673
N          8.83980       -0.87712       -3.21714
C          9.24789       -0.85772       -1.80810
C         10.18842       -2.06026       -1.52794
O         10.46043       -2.90761       -2.35637
O         10.62424       -2.02873       -0.26258
C         11.51610       -3.12207        0.15927
C         10.72545       -4.32287        0.63884
C          9.85316        0.49274       -1.41086
C          7.10962       -2.58653       -5.89498
C          6.57711       -1.33836       -6.64592
O          6.78704       -0.19872       -6.27584
O          5.84042       -1.68924       -7.70565
C          5.24022       -0.58694       -8.47181
C          4.48503       -1.19410       -9.63185
C          7.65754       -3.68516       -6.81254
H          4.19035       -5.08207       -4.84368
H          2.87670       -4.41913       -3.03752
H          2.09459       -4.01484       -4.59817
H          2.02351       -2.05430       -3.16523
H          3.16041       -1.74403       -4.51563
H          4.00268       -0.19214       -1.88794
H          4.54718       -0.32827       -3.59212
H          6.03566       -1.33987       -1.09391
H          6.52395        0.01822       -2.15494
H          6.07339       -2.62115       -3.38061
H          9.41011       -1.29038       -6.34572
H         10.13885       -2.59408       -5.35245
H          9.78479        0.34101       -4.67386
H         10.85433       -0.86619       -3.89406
H          8.35404       -1.03314       -1.19388
H         12.10869       -2.67143        0.96375
H         12.16907       -3.37268       -0.68596
H         10.05103       -4.05228        1.46124
H         11.42333       -5.08609        1.01042
H         10.14268       -4.76779       -0.17732
H         10.76573        0.71109       -1.98095
H         10.11550        0.48175       -0.34782
H          9.13161        1.30003       -1.58919
H          6.24209       -3.00549       -5.35891
H          6.05169        0.07836       -8.79643
H          4.58802       -0.02052       -7.79234
H          5.15529       -1.75718      -10.29368
H          4.02190       -0.39092      -10.22045
H          3.68855       -1.86440       -9.28410
H          8.49247       -3.32736       -7.42894
H          6.86524       -4.02520       -7.48705
H          8.00323       -4.53790       -6.21488
