82

C          2.30833        1.15794       -1.51615
O          3.54831        0.94335       -0.85867
C          3.85807        1.97289        0.06364
C          5.20920        1.64055        0.68074
O          5.49069        2.63838        1.65830
C          6.72753        2.43400        2.31462
C          6.87513        3.54935        3.34050
O          8.09182        3.32578        4.05170
C          8.33032        4.28289        5.06168
C          9.65180        3.91025        5.72952
C         10.10862        4.87732        6.83945
C          9.17599        4.88653        8.07352
N          9.31759        3.59489        8.84325
C         10.74812        3.36892        9.26675
C         11.64843        3.41674        8.02168
N         11.50280        4.62446        7.22658
C         12.24894        5.79984        7.70108
C         12.69645        6.71343        6.55408
C         13.50339        7.90688        7.07895
P         14.18199        9.04285        5.83001
O         14.91674       10.19822        6.39564
O         15.05548        8.10772        4.84278
C         16.51458        8.19337        4.85525
C         17.01664        9.07880        3.73003
O         12.86559        9.36301        4.96752
C         12.85404       10.50948        4.05680
C         13.17752       10.09815        2.63182
C          8.31869        3.41126        9.94016
C          7.48193        2.16355        9.54520
O          7.76798        1.64657        8.46088
C          6.43157        1.66546       10.43276
C          5.67338        0.55164       10.01114
C          4.67713        0.03952       10.83298
C          4.42707        0.62740       12.08007
C          5.17195        1.73324       12.50602
C          6.16991        2.25456       11.68729
H          2.15996        0.31611       -2.20268
H          2.31434        2.10017       -2.09456
H          1.46842        1.19080       -0.79739
H          3.09018        2.03907        0.86020
H          3.90370        2.95867       -0.43995
H          5.99249        1.62467       -0.10033
H          5.17308        0.63675        1.14565
H          7.57210        2.46137        1.59911
H          6.75192        1.45113        2.82528
H          6.01136        3.53666        4.03257
H          6.89274        4.53306        2.83544
H          7.48683        4.28239        5.78651
H          8.38613        5.30523        4.63310
H         10.44293        3.90196        4.96773
H          9.56655        2.87078        6.08838
H         10.06642        5.89769        6.42789
H          8.11907        4.97840        7.79117
H          9.43134        5.70343        8.76274
H          9.03024        2.79514        8.20152
H         10.79318        2.38888        9.76139
H         11.00035        4.15368        9.99421
H         11.43125        2.53482        7.39595
H         12.69320        3.31675        8.34375
H         13.14241        5.42528        8.22378
H         11.68663        6.39795        8.45162
H         11.82611        7.08550        5.99202
H         13.29631        6.12196        5.84758
H         14.38022        7.56793        7.65508
H         12.90402        8.53264        7.75895
H         16.86120        7.15708        4.73885
H         16.84670        8.57536        5.83122
H         16.67461        8.70999        2.75356
H         18.11599        9.08478        3.72590
H         16.67203       10.11251        3.86572
H         13.55602       11.26544        4.43833
H         11.83672       10.91554        4.13539
H         14.20177        9.71556        2.54577
H         13.08199       10.97140        1.97064
H         12.48590        9.32246        2.27641
H          7.68396        4.30298       10.02295
H          8.83768        3.26495       10.89551
H          5.88444        0.10676        9.03899
H          4.09174       -0.82027       10.50738
H          3.64684        0.22088       12.72462
H          4.97256        2.18460       13.47756
H          6.74245        3.11567       12.03575
