74

C          0.85301        0.35192        0.24959
C          2.32835       -0.00293        0.04902
C          2.89465        0.48651       -1.28905
C          4.37675        0.15312       -1.48730
C          4.95710        0.66991       -2.80862
C          6.45214        0.37468       -2.97201
C          7.06111        0.94950       -4.25564
C          8.57421        0.72221       -4.35802
C          9.20655        1.37878       -5.59256
C         10.72057        1.25630       -5.59090
O         11.25571        1.97767       -6.71694
C         12.65566        2.08167       -6.69910
C         13.10619        3.05815       -7.79799
C         14.64472        2.96574       -7.96836
N         15.17604        4.27952       -7.35905
C         14.03213        4.97511       -6.66385
C         12.83345        4.56705       -7.51778
C         11.49315        4.98711       -6.90678
C         10.31840        4.75165       -7.86403
C          9.04437        5.43239       -7.40391
F          8.67062        5.02843       -6.15749
F          9.18416        6.78731       -7.35326
F          8.01535        5.16418       -8.24300
C         15.19802        2.81916       -9.40772
C         15.03096        4.06609      -10.24582
C         13.85951        4.31833      -10.97917
C         13.69387        5.51757      -11.66969
C         14.68408        6.51724      -11.65567
C         15.85841        6.26100      -10.93473
C         16.03322        5.05434      -10.24760
C         14.50695        7.79475      -12.43158
H          0.47849       -0.01411        1.21533
H          0.22430       -0.08833       -0.53819
H          0.69729        1.44070        0.22603
H          2.45819       -1.09609        0.11990
H          2.92519        0.42480        0.87235
H          2.75405        1.57947       -1.36298
H          2.30542        0.05108       -2.11515
H          4.51708       -0.94062       -1.42864
H          4.95767        0.57599       -0.64848
H          4.79403        1.76019       -2.87435
H          4.39915        0.23034       -3.65376
H          6.61682       -0.71662       -2.94250
H          6.99571        0.78440       -2.10219
H          6.85662        2.03351       -4.30037
H          6.55992        0.51024       -5.13533
H          8.78616       -0.36077       -4.36065
H          9.05537        1.12358       -3.44860
H          8.94068        2.44746       -5.61696
H          8.80410        0.92915       -6.51424
H         11.04167        0.19878       -5.64405
H         11.14031        1.68628       -4.65976
H         13.13091        1.09439       -6.88147
H         13.01043        2.41781       -5.69861
H         12.60889        2.75494       -8.72916
H         15.04813        2.15487       -7.34551
H         15.49148        4.86859       -8.16132
H         15.98276        4.12190       -6.74641
H         14.23074        6.05300       -6.63463
H         13.97018        4.59104       -5.63666
H         12.93405        5.09076       -8.48494
H         11.55361        6.06077       -6.66842
H         11.31174        4.45860       -5.96032
H         10.10541        3.67931       -7.95599
H         10.54025        5.14794       -8.86624
H         14.68616        1.95861       -9.86085
H         16.26408        2.55000       -9.34879
H         13.07428        3.56128      -11.02500
H         12.77897        5.68130      -12.24267
H         16.65904        7.00299      -10.92823
H         16.99421        4.85787       -9.75978
H         14.72710        7.63092      -13.49779
H         15.18060        8.58286      -12.07395
H         13.47527        8.16515      -12.36945
