70

C          0.65484        0.72555        0.34631
C          2.15602        0.86455        0.08258
C          2.94943        1.30811        1.31773
C          4.45240        1.44465        1.04673
C          5.23346        1.87294        2.27711
O          6.63309        1.92248        1.94057
C          7.45157        2.27126        3.02697
C          8.90571        2.13682        2.57237
O          9.26724        0.80890        2.15620
C          9.42528        0.01723        3.28784
N         10.14251        1.04419        4.32107
C          9.95113        2.39552        3.66743
C         11.55779        0.74125        4.76063
C         11.54205       -0.13029        6.01228
C         12.94831       -0.54211        6.46400
P         12.87980       -1.17584        8.17365
O         12.29905       -0.21635        9.14514
O         12.04671       -2.54934        8.02524
C         10.92912       -2.85039        8.92047
C         11.38694       -3.59896       10.15705
O         14.40391       -1.60791        8.35873
C         14.89728       -2.09040        9.65109
C         16.40695       -2.16087        9.57668
C         10.18470       -1.24458        2.94060
C          9.27855       -2.43538        2.51169
C          8.22042       -2.10585        1.44250
N          7.13178       -1.29341        2.00920
O         10.12083       -3.51684        2.12975
H          0.11989        0.40283       -0.55683
H          0.21458        1.68041        0.66893
H          0.45256       -0.01535        1.13398
H          2.32331        1.58731       -0.73330
H          2.55827       -0.09710       -0.27897
H          2.78461        0.58417        2.13526
H          2.54988        2.27087        1.68025
H          4.62747        2.17491        0.24088
H          4.85222        0.48163        0.68666
H          5.08949        1.15445        3.10794
H          4.90277        2.86786        2.63022
H          7.23169        1.62845        3.90702
H          7.28716        3.32076        3.34905
H          9.06921        2.77953        1.69780
H          8.46670       -0.20169        3.78521
H          9.56738        1.01302        5.17134
H         10.90845        2.68486        3.22097
H          9.66110        3.13144        4.42674
H         12.04322        1.70435        4.96885
H         12.07515        0.27695        3.91104
H         10.93676       -1.03546        5.84823
H         11.05739        0.43562        6.82771
H         13.63122        0.32068        6.48842
H         13.38593       -1.30159        5.80080
H         10.25068       -3.46308        8.31171
H         10.42912       -1.90883        9.18838
H         11.94310       -4.50637        9.88677
H         10.51120       -3.89994       10.74957
H         12.01800       -2.96442       10.79359
H         14.45577       -3.08203        9.83434
H         14.55632       -1.39728       10.43386
H         16.73206       -2.84568        8.78308
H         16.80392       -2.53008       10.53215
H         16.83808       -1.16954        9.38643
H         10.77046       -1.60702        3.79465
H         10.88874       -1.01037        2.12692
H          8.73843       -2.79230        3.40387
H          7.85122       -3.06957        1.05979
H          8.69396       -1.58492        0.59360
H          6.25300       -1.80562        2.01161
H          6.98973       -0.42791        1.49042
H         10.43797       -3.37067        1.22273
