38

C          4.50026       -0.68251        0.37220
C          3.21732        0.15280        0.33072
C          3.45531        1.63000        0.07104
O          4.00000        1.78265       -1.27170
C          4.81072        2.90420       -1.47584
P          6.57108        2.37204       -1.24174
C          7.01557        1.06473       -2.36336
C          6.27714        0.79620       -3.52841
C          6.61263       -0.29009       -4.33110
C          7.67906       -1.11568       -3.96259
C          8.42666       -0.86918       -2.80883
C          8.10400        0.22916       -2.00624
O          8.77260        0.59408       -0.87418
C          9.77997       -0.29499       -0.34651
N          7.63408        3.66766       -1.36589
N          7.31788        4.58082       -0.32793
N          8.96899        3.59643       -1.80317
H          4.27485       -1.73481        0.58746
H          5.18399       -0.32759        1.15927
H          5.03237       -0.65065       -0.58899
H          2.67902        0.07235        1.28809
H          2.53251       -0.23431       -0.43935
H          4.16214        2.04958        0.80899
H          2.51902        2.20888        0.12562
H          4.62905        3.74144       -0.78225
H          4.69325        3.27608       -2.50541
H          6.60181        1.81157        0.06230
H          5.42659        1.42177       -3.79718
H          6.03861       -0.49909       -5.23253
H          7.93924       -1.97307       -4.58402
H          9.25402       -1.52673       -2.54864
H         10.10739        0.16148        0.59237
H         10.63262       -0.37497       -1.03566
H          9.35482       -1.28863       -0.14718
H          7.34450        5.53159       -0.70355
H          8.01034        4.51334        0.42510
H          9.01479        3.66948       -2.81900
H          9.43759        2.74714       -1.47947
