67

C          0.78033        0.51852       -2.06359
C          2.07551       -0.12479       -1.56102
C          3.16458       -0.21678       -2.63578
C          4.44742       -0.90491       -2.15790
C          5.55728       -0.92986       -3.21400
C          6.79324       -1.73358       -2.79632
C          7.93995       -1.65610       -3.80997
C          9.12416       -2.56998       -3.47539
C         10.31866       -2.38153       -4.41679
C         11.44710       -3.39431       -4.18889
C         12.69905       -3.07596       -5.01786
C         13.77315       -4.13844       -4.88529
O         14.99085       -3.61447       -5.50874
C         16.02149       -4.50379       -5.65631
N         15.86634       -5.31032       -6.92999
N         15.28987       -6.48530       -6.99730
N         15.16418       -6.81903       -8.26954
C         15.66471       -5.81388       -9.01149
N         16.10724       -4.83939       -8.18677
C         16.71848       -3.55816       -8.46107
C         15.92971       -2.40637       -8.37245
C         16.52902       -1.17705       -8.64677
C         17.88229       -1.11617       -8.99560
C         18.64938       -2.28264       -9.07593
C         18.07220       -3.52501       -8.80822
C         15.76917       -5.81813      -10.48890
C         17.13819       -6.37883      -10.92484
O         18.10619       -6.42979      -10.19382
O         17.08445       -6.76667      -12.19905
C         18.32465       -7.29697      -12.75499
H          0.02618        0.58203       -1.26709
H          0.34153       -0.06049       -2.89007
H          0.95806        1.53909       -2.43431
H          1.85905       -1.13577       -1.17603
H          2.46353        0.44821       -0.70176
H          3.40497        0.79916       -2.99670
H          2.76717       -0.75996       -3.51172
H          4.21109       -1.93879       -1.84989
H          4.82037       -0.39860       -1.25017
H          5.85543        0.10665       -3.45136
H          5.15688       -1.34960       -4.15397
H          6.50515       -2.78878       -2.64560
H          7.15210       -1.37627       -1.81515
H          8.29027       -0.61118       -3.88007
H          7.55935       -1.91344       -4.81424
H          8.79056       -3.62196       -3.50762
H          9.45014       -2.38815       -2.43644
H         10.71589       -1.35860       -4.29575
H          9.97701       -2.45112       -5.46443
H         11.08156       -4.40752       -4.42877
H         11.71691       -3.41202       -3.11920
H         13.12024       -2.11045       -4.69545
H         12.42931       -2.96615       -6.08143
H         13.47645       -5.07749       -5.38223
H         14.00386       -4.35956       -3.82944
H         16.09458       -5.27837       -4.87645
H         16.96639       -3.95575       -5.76399
H         14.88199       -2.47387       -8.08221
H         15.93561       -0.26508       -8.58585
H         18.34237       -0.15053       -9.20585
H         19.70373       -2.22939       -9.34640
H         18.64080       -4.45166       -8.87879
H         15.66650       -4.80124      -10.89636
H         14.96231       -6.43537      -10.90294
H         18.06138       -7.62891      -13.76202
H         18.68053       -8.13358      -12.14327
H         19.08491       -6.50760      -12.78853
