42

F          2.30958       -0.09472       -1.29028
C          2.24884       -0.45712        0.06587
C          2.73036        0.70362        0.92383
C          4.19508        1.05391        0.62056
C          4.69809        2.32095        1.33540
C          4.59653        2.23863        2.86499
O          5.31443        1.10265        3.26945
C          5.37461        0.92230        4.70031
C          6.16444       -0.34081        4.99649
C          6.25382       -0.62136        6.49846
S          6.54843        2.47267        0.97800
C          6.35861        4.05358        0.43084
N          5.14964        4.55964        0.38437
C          4.06945        3.63121        0.79294
C          4.85197        5.94563       -0.05248
C          5.13002        6.18877       -1.54344
C          4.36683        5.31902       -2.52694
Br         2.42757        5.31524       -2.24691
Br         4.78598        8.09745       -1.84436
H          2.87976       -1.35070        0.19638
H          1.20467       -0.71418        0.29562
H          2.61163        0.41215        1.97887
H          2.06461        1.56400        0.74577
H          4.31910        1.18896       -0.46439
H          4.83226        0.20836        0.91840
H          3.52520        2.17486        3.14871
H          5.00155        3.16487        3.32283
H          4.34513        0.84740        5.09818
H          5.85277        1.80820        5.15940
H          7.17312       -0.23735        4.56766
H          5.68420       -1.18626        4.48034
H          6.74919        0.20066        7.03456
H          6.83063       -1.53499        6.68732
H          5.25760       -0.76029        6.94214
H          7.22027        4.65517        0.13255
H          3.42333        3.45023       -0.08015
H          3.46175        4.13235        1.56170
H          5.45174        6.63758        0.55263
H          3.79123        6.12960        0.15753
H          6.20301        6.07282       -1.75876
H          4.68395        4.27062       -2.44885
H          4.52615        5.66327       -3.55280
