77

C          0.37065       11.12544       -5.71610
C          1.89695       11.20804       -5.63262
C          2.49404       10.32954       -4.52745
C          4.02162       10.40522       -4.44218
C          4.62265        9.54033       -3.32948
C          6.15109        9.61592       -3.26062
C          6.76354        8.78349       -2.12974
C          8.29302        8.85768       -2.08732
C          8.91918        8.09177       -0.91816
C         10.45095        8.14977       -0.91177
C         11.07615        7.48279        0.31846
C         12.60754        7.38093        0.28901
C         13.30681        8.76359        0.21090
C         14.79313        8.63578        0.24737
C         15.61314        8.43430       -0.85977
C         16.98549        8.28601       -0.68103
C         17.58370        8.33314        0.59037
C         16.74452        8.52492        1.69583
N         15.40943        8.66109        1.45863
C         17.16520        8.55147        3.13366
C         17.22847        7.13560        3.75640
C         17.67366        7.19487        5.22158
C         17.74769        5.80428        5.85875
S         18.26787        5.95410        7.58207
O         19.65486        6.37135        7.62185
O         17.23789        6.66854        8.29242
O         18.19475        4.40408        8.05514
C         19.08038        8.20626        0.72423
C         19.89606        9.43622        0.23007
C         19.72313       10.67807        1.12830
F         20.14205       10.41449        2.40343
F         20.42503       11.72356        0.67430
F         18.41379       11.05759        1.20903
O         21.25877        9.11748        0.08774
H         -0.02506       11.76623       -6.51598
H         -0.09884       11.44357       -4.77323
H          0.03679       10.09690       -5.91911
H          2.20135       12.25541       -5.46610
H          2.33582       10.91804       -6.60247
H          2.18833        9.28084       -4.69042
H          2.05848       10.62156       -3.55537
H          4.32637       11.45582       -4.28978
H          4.45587       10.10443       -5.41210
H          4.31441        8.48997       -3.47403
H          4.19724        9.84804       -2.35799
H          6.45788       10.67010       -3.14066
H          6.57522        9.28778       -4.22609
H          6.45066        7.73011       -2.23547
H          6.35379        9.12450       -1.16273
H          8.60326        9.91640       -2.03231
H          8.70220        8.47323       -3.03830
H          8.59476        7.03739       -0.94692
H          8.53507        8.50062        0.03270
H         10.75922        9.20856       -0.96835
H         10.83841        7.66881       -1.82774
H         10.67960        6.45970        0.41901
H         10.76148        8.01854        1.23057
H         12.92823        6.77567       -0.57459
H         12.96093        6.85078        1.18887
H         12.96417        9.40178        1.04232
H         13.02238        9.27524       -0.71840
H         15.16803        8.40019       -1.85285
H         17.61913        8.12990       -1.55676
H         14.81402        8.81414        2.27510
H         16.46024        9.17510        3.70693
H         18.14181        9.04330        3.22585
H         17.92148        6.50870        3.17241
H         16.23894        6.65544        3.67856
H         16.97520        7.81922        5.80007
H         18.66091        7.67859        5.28972
H         18.48271        5.15417        5.36413
H         16.77229        5.29804        5.87815
H         19.11047        4.10833        8.22467
H         19.42544        7.36909        0.10129
H         19.37474        7.97243        1.75550
H         19.55057        9.73581       -0.77203
H         21.66393        8.99605        0.96424
