68

O          3.39738       -2.00715        3.60727
C          3.88215       -1.49545        4.85654
C          5.25855       -0.88533        4.66087
N          5.23042        0.26436        3.74797
C          6.40428        1.13348        3.83815
C          7.65755        0.55241        3.15418
C          7.38058       -0.06305        1.76057
C          6.69131        0.85093        0.81154
N          6.84725        2.16277        0.76986
N          6.08007        2.59159       -0.27045
C          5.46560        1.57369       -0.85990
N          5.81750        0.45245       -0.19653
C          5.37133       -0.88412       -0.50633
C          4.63183       -1.59864        0.43613
C          4.23474       -2.90386        0.14107
C          4.57706       -3.46811       -1.08981
C          5.31268       -2.75047       -2.03719
C          5.72376       -1.44012       -1.75751
O          6.43950       -0.64254       -2.59327
C          6.91568       -1.20670       -3.82697
C          6.01728        4.02558       -0.59944
C          7.35443        4.57738       -1.10288
C          7.73034        4.08714       -2.50294
S          9.31957        4.74648       -3.06309
C         10.48652        3.56175       -2.36174
S          9.99897        2.18194       -1.55046
N         11.77393        3.90922       -2.57074
C         12.18457        5.11894       -3.30578
C         12.44317        6.32009       -2.39469
C         12.87556        3.07689       -2.05324
C         13.33389        2.01541       -3.05227
O          8.69853        1.52043        3.12359
H          2.53557       -2.41945        3.77121
H          3.95926       -2.29858        5.60917
H          3.19143       -0.72670        5.25471
H          5.93825       -1.65658        4.26115
H          5.64164       -0.60792        5.66535
H          4.39593        0.81712        3.95008
H          6.69162        1.37641        4.88103
H          6.15661        2.08581        3.34454
H          8.06227       -0.26869        3.76577
H          6.78841       -0.98029        1.86242
H          8.35435       -0.34134        1.32455
H          4.79625        1.62334       -1.71060
H          4.37889       -1.14359        1.39704
H          3.66514       -3.46896        0.87705
H          4.26969       -4.48747       -1.32549
H          5.56771       -3.21133       -2.98966
H          7.51615       -0.41967       -4.29310
H          6.07838       -1.47788       -4.48681
H          7.54623       -2.08720       -3.63686
H          5.70910        4.53936        0.32072
H          5.21641        4.14099       -1.34339
H          8.14674        4.30289       -0.39229
H          7.27337        5.67401       -1.09620
H          7.00686        4.42715       -3.25979
H          7.81913        2.98968       -2.53707
H         11.42172        5.35539       -4.06092
H         13.09511        4.85530       -3.86346
H         11.53233        6.61047       -1.85607
H         12.77489        7.17705       -2.99619
H         13.22848        6.10271       -1.65841
H         12.52838        2.60706       -1.12457
H         13.69968        3.76214       -1.80707
H         12.51948        1.31252       -3.26758
H         14.17564        1.45002       -2.63031
H         13.67113        2.46438       -3.99662
H          8.39776        2.27008        2.58083
