94

C          0.77231        0.87042      -13.75357
C          2.29882        0.80680      -13.65587
C          2.79746       -0.14869      -12.56612
C          4.32392       -0.21402      -12.45455
C          4.82022       -1.16463      -11.36046
C          6.34670       -1.21806      -11.24189
C          6.84535       -2.16623      -10.14679
C          8.37154       -2.20074      -10.01954
C          8.87180       -3.15927       -8.93336
C         10.40020       -3.17380       -8.80739
C         10.88834       -4.15855       -7.76032
O         12.32959       -4.09793       -7.71005
C         12.89782       -5.03446       -6.83308
C         14.42638       -4.91771       -6.90672
C         15.11208       -6.03048       -6.08697
C         16.23520       -6.77933       -6.79645
O         16.72113       -7.71459       -5.86992
C         17.73802       -8.59743       -6.38975
C         18.14032       -9.55828       -5.28497
C         19.12635      -10.63454       -5.75577
C         19.54368      -11.58270       -4.62566
C         20.46539      -12.71928       -5.07890
C         20.91092      -13.63073       -3.93004
C         21.79149      -14.80180       -4.37747
C         22.25792      -15.69617       -3.22288
C         23.11528      -16.87867       -3.68124
S         15.78692       -5.22630       -4.55200
C         15.49607       -3.69243       -5.20474
N         14.89772       -3.61305       -6.36388
C         14.73860       -2.33815       -7.11523
C         16.07650       -1.79901       -7.63193
C         16.84511       -2.75217       -8.55271
C         18.14975       -2.14515       -9.08336
C         18.94819       -3.10975       -9.96202
H          0.44636        1.56293      -14.54176
H          0.32574        1.21087      -12.80731
H          0.34505       -0.11743      -13.98209
H          2.69852        1.81685      -13.46249
H          2.71864        0.49844      -14.62847
H          2.40137       -1.16116      -12.76093
H          2.37345        0.15708      -11.59313
H          4.71884        0.79941      -12.26270
H          4.74840       -0.52289      -13.42620
H          4.43297       -2.18023      -11.55538
H          4.39007       -0.85995      -10.39009
H          6.73233       -0.20169      -11.04715
H          6.77795       -1.52269      -12.21180
H          6.47237       -3.18580      -10.34825
H          6.40519       -1.87003       -9.17840
H          8.74341       -1.18287       -9.80779
H          8.81346       -2.48833      -10.98955
H          8.51034       -4.17851       -9.15412
H          8.42341       -2.88026       -7.96427
H         10.76389       -2.16601       -8.54730
H         10.85451       -3.43499       -9.77685
H         10.57992       -5.19066       -8.01290
H         10.47916       -3.91853       -6.76073
H         12.63374       -6.07285       -7.12123
H         12.55814       -4.88359       -5.78683
H         14.73319       -4.96210       -7.96325
H         14.37592       -6.76400       -5.73043
H         17.02561       -6.07896       -7.13886
H         15.81131       -7.27145       -7.69732
H         18.60059       -7.99865       -6.73827
H         17.32778       -9.14210       -7.26097
H         17.22882      -10.03733       -4.89257
H         18.57775       -8.98347       -4.45271
H         20.02501      -10.15914       -6.18555
H         18.66920      -11.21856       -6.57333
H         18.63923      -12.01289       -4.16102
H         20.04290      -11.00114       -3.83099
H         21.35580      -12.29589       -5.57598
H         19.94939      -13.32276       -5.84627
H         20.01928      -14.02431       -3.41065
H         21.45480      -13.02978       -3.18001
H         22.67427      -14.41257       -4.91512
H         21.23847      -15.41431       -5.11149
H         21.37635      -16.07025       -2.67501
H         22.82546      -15.08679       -2.49918
H         22.56062      -17.52936       -4.37373
H         23.43660      -17.49697       -2.83179
H         24.02104      -16.53724       -4.20423
H         15.82039       -2.78951       -4.68342
H         14.25034       -1.61780       -6.44397
H         14.03644       -2.55355       -7.92769
H         16.71277       -1.50827       -6.77837
H         15.84783       -0.86258       -8.16533
H         16.20268       -3.04551       -9.40150
H         17.08696       -3.68466       -8.01093
H         18.76981       -1.82160       -8.23059
H         17.91618       -1.23026       -9.65193
H         19.23299       -4.01659       -9.40745
H         19.87257       -2.64282      -10.32534
H         18.36913       -3.42499      -10.84230
