75

C          1.84920      -10.86610      -11.67205
C          3.33687      -10.63407      -11.40049
C          3.66146       -9.18970      -11.00662
C          5.14458       -8.95528      -10.70639
C          5.45818       -7.53612      -10.22284
C          6.93030       -7.33280       -9.85195
C          7.22049       -5.97226       -9.20833
C          8.67291       -5.83884       -8.73768
C          8.91675       -4.58650       -7.91019
O         10.25698       -4.63542       -7.39678
C         10.51712       -3.67723       -6.39271
N         11.77347       -4.06935       -5.77113
C         11.70877       -5.30051       -5.00351
C         11.10351       -5.08701       -3.61160
N         11.87116       -3.99803       -2.89632
C         11.96754       -2.71972       -3.69483
C         12.56424       -3.04893       -5.08631
N         12.71846       -1.86443       -5.90898
C         13.33083       -0.72711       -5.22295
C         13.44923       -2.17613       -7.14612
C         11.42471       -3.81140       -1.48042
C         12.44880       -4.61071       -0.63369
O         13.48294       -4.98832       -1.20617
N         12.15268       -4.81181        0.65412
C         13.04213       -5.50017        1.60468
C         13.06840       -4.80590        2.96737
C         11.72443       -4.80035        3.70728
C         11.81809       -4.16316        5.09597
H          1.64725      -11.91026      -11.94732
H          1.48977      -10.22901      -12.49368
H          1.24278      -10.63249      -10.78419
H          3.92338      -10.90779      -12.29369
H          3.67540      -11.31072      -10.59746
H          3.06472       -8.91584      -10.11818
H          3.33517       -8.50796      -11.81141
H          5.74262       -9.17996      -11.60671
H          5.47431       -9.67619       -9.93712
H          4.83166       -7.31245       -9.34095
H          5.16460       -6.80554      -10.99621
H          7.56183       -7.46270      -10.74750
H          7.23439       -8.12842       -9.14893
H          6.54453       -5.83825       -8.34509
H          6.97583       -5.16302       -9.91673
H          9.35896       -5.84773       -9.59903
H          8.93638       -6.71228       -8.11832
H          8.19994       -4.54176       -7.06511
H          8.77546       -3.66946       -8.51292
H          9.65144       -3.66191       -5.68402
H         10.64086       -2.65741       -6.79352
H         12.72300       -5.72263       -4.90404
H         11.10529       -6.03171       -5.55632
H         11.17086       -5.98964       -2.98930
H         10.05577       -4.76026       -3.66571
H         12.85122       -4.38029       -2.72041
H         12.61320       -2.05046       -3.11323
H         10.96216       -2.28391       -3.77730
H         13.55704       -3.53319       -4.88558
H         12.68082       -0.33581       -4.42930
H         13.46429        0.08165       -5.95126
H         14.32946       -0.95757       -4.79232
H         12.96976       -3.00865       -7.67179
H         14.50620       -2.44978       -6.94867
H         13.43527       -1.29249       -7.79591
H         10.39187       -4.15968       -1.35950
H         11.47564       -2.74468       -1.22407
H         11.25755       -4.48285        1.00726
H         14.03702       -5.52416        1.14394
H         12.69857       -6.54227        1.71242
H         13.44119       -3.77536        2.84752
H         13.81494       -5.33328        3.58153
H         11.35516       -5.83566        3.79688
H         10.96255       -4.25170        3.12276
H         12.53072       -4.70815        5.73095
H         10.84515       -4.16935        5.60379
H         12.15772       -3.11929        5.03386
