65

O          1.52580       -3.03444        0.16103
C          2.77204       -2.41518       -0.14651
C          2.79496       -0.99932        0.46476
N          2.52726       -1.07604        1.95614
C          1.72537       -0.03268        2.65114
C          1.08627       -0.76983        3.84942
N          1.93012       -1.97594        3.91192
C          2.72514       -2.09595        2.81751
N          3.53642       -3.16140        2.71497
C          4.95138       -3.23403        2.32732
C          5.71030       -3.94042        3.45977
O          4.96847       -5.09349        3.81612
Si         5.57057       -6.40683        4.72445
C          6.07545       -5.79473        6.42693
C          4.11158       -7.57501        4.80065
C          7.03237       -7.15717        3.81862
C         -0.39939       -1.09382        3.66789
C         -0.99866       -1.84147        4.87416
C         -2.46946       -2.03728        4.75543
C         -3.12331       -3.20208        4.68768
F         -2.50884       -4.38578        4.71422
F         -4.43512       -3.32802        4.59194
F         -3.20446       -0.89294        4.71677
C          4.17722       -0.32663        0.24795
C          4.57626        0.06747       -1.20132
C          4.26285        1.53820       -1.51347
C          6.06936       -0.21241       -1.42791
C          1.66141       -0.19677       -0.19823
H          1.42566       -3.82482       -0.39085
H          2.90197       -2.29023       -1.23407
H          3.61649       -3.01974        0.21549
H          0.95587        0.36695        1.98762
H          2.38017        0.79385        2.96709
H          1.22878       -0.19073        4.77359
H          2.20966       -2.39595        4.79096
H          3.30557       -3.94710        3.32982
H          5.35722       -2.22848        2.16728
H          5.06083       -3.81616        1.39995
H          5.81532       -3.26115        4.32613
H          6.72254       -4.18868        3.09590
H          5.23091       -5.33455        6.95936
H          6.89281       -5.06078        6.38164
H          6.43119       -6.63502        7.04112
H          3.25106       -7.11683        5.30803
H          4.37497       -8.48556        5.35733
H          3.79302       -7.88174        3.79486
H          7.87517       -6.45788        3.72372
H          6.75107       -7.49487        2.81143
H          7.40471       -8.03362        4.36909
H         -0.53600       -1.68831        2.75083
H         -0.93838       -0.14435        3.52703
H         -0.79829       -1.26889        5.79806
H         -0.52789       -2.82773        4.99277
H          4.94259       -1.00862        0.64508
H          4.21463        0.57393        0.88223
H          4.01368       -0.56146       -1.91220
H          4.83662        2.20089       -0.84751
H          3.20003        1.78288       -1.39381
H          4.54416        1.78484       -2.54625
H          6.68779        0.37239       -0.72947
H          6.37201        0.06403       -2.44684
H          6.30931       -1.27576       -1.28303
H          0.68337       -0.64883        0.00457
H          1.81386       -0.21889       -1.28384
H          1.65619        0.85633        0.10579
