69

C          1.55944       -0.72418       -1.10665
C          2.98985       -0.88882       -0.58971
C          3.41862        0.27771        0.30440
C          4.85675        0.20627        0.74550
O          5.72237       -0.51984        0.30592
O          5.10414        1.12317        1.75119
C          6.44656        1.16213        2.24547
C          7.27816        2.14679        1.40131
N          8.66501        2.25070        1.85168
C          9.08094        3.04887        2.84058
N          8.30477        4.03007        3.37758
C          8.66271        4.79919        4.52527
C          7.67309        6.00214        4.78336
C          6.11242        5.71719        4.86495
C          5.63371        4.63623        5.90211
C          4.09806        4.59394        6.30559
C          2.95668        4.43795        5.22293
C          2.88606        3.17249        4.27728
C          2.82888        1.73524        4.91807
F          1.92106        1.67615        5.89960
F          2.49388        0.85523        3.95634
F          4.03557        1.38333        5.40668
F          1.75753        3.32986        3.54489
F          3.95305        3.20414        3.43090
F          1.79409        4.49540        5.91272
F          3.02424        5.51710        4.39592
F          3.98653        3.56167        7.18092
F          3.83151        5.74741        6.96225
F          5.99163        3.41226        5.41099
F          6.30278        4.84277        7.06103
F          5.52848        6.89954        5.12223
F          5.73551        5.30371        3.60517
F          8.07609        6.60863        5.91446
F          7.82573        6.86199        3.73989
F          8.74894        4.02461        5.64288
F          9.90841        5.34545        4.35182
N         10.33080        2.77867        3.22701
C         10.95027        1.82242        2.29534
C          9.73391        1.23965        1.52753
C          9.90800        1.01770        0.00449
C         11.35094        0.67131       -0.39770
O         12.14824        1.86139       -0.40790
C          8.96876       -0.09847       -0.51695
C          8.54466        0.08962       -1.97473
H          1.26859       -1.57899       -1.73060
H          1.45530        0.18352       -1.71936
H          0.83470       -0.65402       -0.28235
H          3.69127       -0.97416       -1.43258
H          3.08274       -1.82835       -0.02352
H          2.78530        0.36345        1.20107
H          3.29727        1.24037       -0.22475
H          6.89003        0.15704        2.21299
H          6.37206        1.49758        3.28858
H          6.81160        3.14378        1.40444
H          7.28854        1.82706        0.35285
H          7.35503        4.13723        3.02920
H         10.88049        3.45091        3.75332
H         11.48941        1.04531        2.84867
H         11.64594        2.33911        1.62035
H          9.43407        0.28447        1.99238
H          9.67226        1.97253       -0.49748
H         11.32476        0.21852       -1.40166
H         11.77117       -0.08854        0.29042
H         13.01096        1.65737       -0.80162
H          8.06455       -0.17989        0.10153
H          9.48112       -1.06847       -0.39448
H          7.94807        1.00586       -2.10042
H          7.92729       -0.75324       -2.30879
H          9.40426        0.16285       -2.65622
