68

O          2.42093        0.75111       -0.10988
C          3.71830        0.30716        0.27389
C          3.52909       -0.62339        1.46393
O          4.83434       -0.99436        1.91656
C          4.86787       -1.65680        3.16236
O          6.11781       -1.40309        3.76516
C          6.30050       -0.03321        4.12879
C          7.78983        0.27032        4.00400
C          8.65508       -0.60594        4.92426
N          9.91471        0.24302        5.21956
C          9.77069        1.52139        4.38248
C          8.25967        1.72723        4.28460
C          7.69275        2.41470        5.54704
C          6.31107        3.04440        5.32394
C          5.77543        3.92221        6.45799
C          4.92086        3.24008        7.59871
C          5.53727        2.15669        8.56938
C          6.77015        2.46408        9.50741
C          6.73229        3.62766       10.57722
C          5.62882        3.58552       11.70045
F          5.61372        2.38619       12.30835
F          5.92009        4.53185       12.60621
F          4.41260        3.83594       11.18965
F          7.93865        3.56771       11.20189
F          6.63833        4.81474        9.93328
F          7.02216        1.30291       10.16529
F          7.84902        2.72293        8.70630
F          4.52764        1.72351        9.35805
F          5.93654        1.09503        7.78880
F          4.39323        4.22088        8.36707
F          3.89537        2.58752        6.96936
F          6.77898        4.65065        7.04139
F          4.90073        4.82263        5.90314
C         11.22516       -0.42849        5.14429
C         12.01453       -0.44484        6.29073
C         13.27162       -1.04849        6.26585
C         13.72015       -1.63194        5.08045
C         12.93205       -1.61960        3.92718
C         11.66828       -1.01506        3.93976
O         10.81979       -0.94269        2.87869
C         11.21858       -1.55537        1.63691
H          2.48598        1.20735       -0.96153
H          4.36721        1.15122        0.57722
H          4.22664       -0.23678       -0.54145
H          2.94260       -1.50952        1.16457
H          2.97304       -0.10025        2.26450
H          4.81916       -2.75166        3.04495
H          4.02980       -1.30569        3.80103
H          5.93146        0.12250        5.15980
H          5.74035        0.61943        3.44035
H          8.06536        0.03406        2.96467
H          8.97068       -1.54405        4.46481
H          8.18150       -0.81840        5.89122
H          9.83117        0.53920        6.19933
H         10.22477        1.30988        3.40966
H         10.32601        2.31966        4.88869
H          8.04976        2.35742        3.40709
H          8.38478        3.21675        5.84275
H          7.65924        1.71015        6.38963
H          5.54031        2.29907        5.09281
H          6.36256        3.72135        4.45756
H         11.64513        0.01707        7.21067
H         13.88914       -1.06104        7.16206
H         14.70038       -2.10716        5.04507
H         13.30544       -2.08156        3.01535
H         11.38132       -2.63474        1.76687
H         12.12492       -1.07833        1.23696
H         10.38150       -1.39040        0.95237
