38

F          0.13250        0.75349       -1.94459
C          1.30057        0.67485       -1.17964
C          2.40774        1.42683       -1.90749
C          3.71265        1.44811       -1.06943
C          4.67959        2.43951       -1.64845
C          5.43609        2.04742       -2.76286
C          6.29239        2.92905       -3.42113
C          7.07571        2.59339       -4.54547
C          7.74887        2.29422       -5.50740
N          6.36805        4.20476       -2.93540
C          5.67070        4.62251       -1.85683
C          4.81477        3.77528       -1.16575
C          4.14003        4.32856        0.07705
C          2.60213        4.18964        0.02941
O          1.94542        3.54067        0.81411
O          2.10774        4.91029       -0.99322
C          0.64244        4.91479       -1.13517
C          0.29889        5.83194       -2.28662
C          4.73471        3.75778        1.37537
H          1.54571       -0.39093       -1.04736
H          1.09194        1.12778       -0.19834
H          2.06611        2.45360       -2.10074
H          2.59163        0.96414       -2.88887
H          4.17003        0.44779       -1.07296
H          3.46885        1.69507       -0.02989
H          5.36249        1.02960       -3.14401
H          8.34492        2.02901       -6.35913
H          6.98790        4.85952       -3.41333
H          5.82612        5.66052       -1.56601
H          4.31783        5.41591        0.06825
H          0.21437        5.25269       -0.18192
H          0.31227        3.88003       -1.30740
H          0.64119        6.85750       -2.09767
H         -0.79123        5.85686       -2.41599
H          0.74147        5.47950       -3.22771
H          4.60047        2.67333        1.45895
H          4.24143        4.21655        2.24010
H          5.80839        3.97765        1.42783
