73

C          1.29385        1.04161        0.71539
C          2.27908        0.93501       -0.17832
C          2.73826       -0.36815       -0.77329
C          4.22450       -0.62321       -0.50644
O          4.97622        0.32424       -1.25772
C          6.35947        0.37885       -0.90567
C          7.00604       -0.98895       -1.15948
N          6.18474       -2.06383       -0.47187
C          4.69898       -2.04434       -0.87052
C          4.56177       -2.44371       -2.34508
C          3.31035       -3.27823       -2.65184
C          3.11637       -3.59350       -4.15074
C          4.35290       -4.28515       -4.77949
C          5.31635       -3.33520       -5.52657
C          6.60538       -4.00727       -5.90076
C          7.85619       -3.68110       -5.52502
C          8.20244       -2.50512       -4.64651
C          9.04228       -4.48611       -5.98757
C          1.84506       -4.43290       -4.33368
C          7.04192        1.57071       -1.66475
C          6.26807        1.95172       -2.95543
C          6.16021        0.92143       -4.11172
C          4.76080        0.96091       -4.74072
C          7.23942        1.11820       -5.18565
C          7.01373        2.79435       -0.70170
O          5.74566        3.06895       -0.12009
C          8.53069        1.28943       -1.94811
H          0.99365        2.00836        1.11826
H          0.74173        0.16889        1.07173
H          2.80985        1.82910       -0.51528
H          2.58231       -0.36434       -1.86550
H          2.14638       -1.19860       -0.35875
H          4.41447       -0.46084        0.57772
H          6.42555        0.58683        0.18386
H          8.01969       -1.05089       -0.74666
H          7.03520       -1.25338       -2.22139
H          6.25189       -1.93457        0.54857
H          6.58023       -2.98792       -0.68885
H          4.22311       -2.78641       -0.21002
H          5.44696       -3.03062       -2.64660
H          4.57694       -1.53386       -2.96246
H          2.41174       -2.75898       -2.28555
H          3.36623       -4.22981       -2.09289
H          2.96293       -2.63149       -4.67334
H          4.01607       -5.05802       -5.48681
H          4.91018       -4.83609       -4.00116
H          5.50418       -2.43014       -4.93131
H          4.80624       -2.98273       -6.43992
H          6.49580       -4.88349       -6.54975
H          7.31849       -1.93944       -4.32785
H          8.86657       -1.80205       -5.17392
H          8.75644       -2.83657       -3.75113
H          8.73891       -5.33166       -6.61693
H          9.61397       -4.88275       -5.13260
H          9.74349       -3.86321       -6.56686
H          1.95310       -5.42270       -3.86399
H          1.63166       -4.59369       -5.39886
H          0.96675       -3.94502       -3.88717
H          6.74075        2.86863       -3.34477
H          5.24952        2.23630       -2.65617
H          6.29035       -0.09177       -3.69518
H          4.55459        1.94724       -5.18340
H          3.98145        0.76614       -3.98998
H          4.66139        0.21453       -5.54205
H          7.13847        2.10635       -5.65886
H          7.14884        0.36224       -5.97822
H          8.25683        1.05046       -4.77905
H          7.41261        3.67454       -1.23587
H          7.68650        2.59469        0.14730
H          5.18888        3.51584       -0.77561
H          8.69167        0.45307       -2.64096
H          9.09169        1.08454       -1.02315
H          8.99073        2.17358       -2.40956
