61

C         -0.34439        1.46325        1.30526
C          1.04331        1.54164        0.66481
C          2.11167        2.10766        1.60727
C          3.50753        2.17899        0.98060
C          4.56752        2.74943        1.92961
C          5.96664        2.80804        1.30241
C          6.99931        3.35634        2.26807
O          8.28448        3.40572        1.59098
C          9.30585        3.85595        2.40592
N         10.51605        4.03948        1.53448
C         10.39592        5.12826        0.46153
C         11.26368        4.61919       -0.70129
C         12.07809        3.43009       -0.12496
C         10.99735        2.81387        0.78674
C         12.65101        2.46103       -1.19503
C         11.75709        1.43011       -1.92694
C         10.72765        1.97886       -2.93492
N          9.48609        2.40801       -2.26398
O         12.61820        0.48167       -2.55991
C         13.25324        3.89622        0.76178
C         13.77016        5.19768        0.74032
C         14.83840        5.53054        1.58307
N         15.41227        4.67264        2.43335
C         14.92761        3.42163        2.44795
C         13.87022        2.99187        1.64524
H         -1.08747        1.05888        0.60494
H         -0.69531        2.45609        1.62360
H         -0.33880        0.81398        2.19313
H          0.99579        2.16473       -0.24423
H          1.35193        0.53787        0.32720
H          2.15406        1.48975        2.52143
H          1.80727        3.11583        1.93904
H          3.46777        2.79465        0.06495
H          3.81469        1.16962        0.65534
H          4.60047        2.13607        2.84644
H          4.26359        3.76093        2.24974
H          5.94986        3.44146        0.40076
H          6.27761        1.80092        0.98110
H          7.08993        2.71352        3.16244
H          6.73626        4.37682        2.60274
H          9.58530        3.13346        3.19763
H          9.09230        4.83865        2.87038
H         11.29483        4.31273        2.15442
H         10.73556        6.06834        0.91034
H          9.33509        5.19919        0.20169
H         11.89162        5.40763       -1.12837
H         10.60422        4.23058       -1.48429
H         11.34104        2.06559        1.50928
H         10.14693        2.44112        0.20407
H         13.43598        1.86061       -0.71521
H         13.16898        3.08099       -1.94704
H         11.21151        0.82469       -1.18178
H         10.56495        1.18635       -3.68488
H         11.15306        2.84601       -3.46697
H          8.89742        2.92267       -2.92065
H          8.93922        1.58462       -2.00238
H         13.11809        0.92337       -3.26716
H         13.37438        5.96430        0.07464
H         15.24877        6.54407        1.56838
H         15.41353        2.72395        3.13514
H         13.55593        1.94778        1.70520
