69

C          0.38727        0.13685       -0.09535
C          1.87832       -0.12452        0.13227
C          2.54074       -0.88416       -1.02221
C          4.02749       -1.17886       -0.79864
C          4.68580       -1.89655       -1.98104
C          6.16513       -2.22826       -1.75997
C          6.82067       -2.88871       -2.97660
C          8.28806       -3.26939       -2.75085
C          8.91949       -3.87116       -4.01470
C         10.42376       -4.17997       -3.99906
C         10.93040       -5.46816       -3.27683
C         10.10734       -6.00908       -2.09186
C         10.83723       -7.12664       -1.35429
O         12.05142       -7.14165       -1.16936
O          9.99561       -8.05201       -0.90448
C         10.57143       -9.13954       -0.09381
C          9.42830      -10.01195        0.38554
C          9.92413      -11.17011        1.26407
C          8.78443      -12.07010        1.74768
N         12.26776       -5.04193       -2.81477
C         12.32143       -3.70540       -2.75302
N         13.31611       -2.99747       -2.20983
N         11.25673       -3.12912       -3.35030
C         11.27712       -1.74465       -3.79274
O         11.47642       -0.93809       -2.64919
C         11.54295        0.47454       -2.96222
C         11.80259        1.23084       -1.67646
H         -0.05431        0.70429        0.73520
H         -0.17323       -0.80554       -0.18862
H          0.21841        0.71282       -1.01777
H          2.01543       -0.69230        1.06822
H          2.40315        0.83432        0.28199
H          2.42033       -0.30353       -1.95374
H          2.00319       -1.83402       -1.18964
H          4.14653       -1.78836        0.11439
H          4.56314       -0.23320       -0.60233
H          4.58444       -1.27214       -2.88594
H          4.13433       -2.82851       -2.19600
H          6.26454       -2.89115       -0.88251
H          6.71543       -1.30512       -1.50532
H          6.74952       -2.20829       -3.84330
H          6.24929       -3.79093       -3.25627
H          8.34559       -3.97048       -1.90550
H          8.85365       -2.37743       -2.43447
H          8.73154       -3.18559       -4.85705
H          8.40026       -4.80116       -4.29930
H         10.75720       -4.26564       -5.04927
H         11.04543       -6.26966       -4.01954
H          9.12814       -6.37122       -2.42771
H          9.92923       -5.21345       -1.35136
H         11.12957       -8.68233        0.73592
H         11.28469       -9.68804       -0.72557
H          8.88364      -10.40951       -0.48562
H          8.71388       -9.39342        0.95209
H         10.46754      -10.76406        2.13285
H         10.65582      -11.77175        0.70070
H          8.05205      -11.50446        2.34094
H          9.16329      -12.88555        2.37728
H          8.24804      -12.52434        0.90258
H         12.68733       -5.66509       -2.10537
H         14.06807       -3.46408       -1.71802
H         13.13898       -2.00582       -2.04797
H         10.31236       -1.53016       -4.28234
H         12.09179       -1.58110       -4.52957
H         10.58733        0.78043       -3.42300
H         12.34747        0.64554       -3.70040
H         11.00210        1.05415       -0.94670
H         11.84698        2.30809       -1.88255
H         12.76018        0.93607       -1.22591
