109

C          2.04882       -6.90429      -14.02990
C          3.55234       -6.61673      -14.04714
C          3.93241       -5.32527      -13.31419
C          5.43554       -5.02975      -13.32339
C          5.81359       -3.73972      -12.58836
C          7.31706       -3.44595      -12.59599
C          7.69684       -2.15606      -11.86174
C          9.20142       -1.86801      -11.86944
C          9.58514       -0.57425      -11.14465
C         11.09048       -0.29070      -11.15529
C         11.47547        1.00586      -10.43634
C         12.98298        1.27790      -10.43304
C         13.36335        2.59394       -9.74857
C         14.87472        2.84502       -9.70588
C         15.23157        4.18522       -9.05149
C         16.74117        4.43558       -8.98893
N         17.40985        3.47653       -8.07483
C         17.98541        4.09976       -7.03790
N         18.58661        3.47121       -6.01806
N         17.90080        5.42305       -7.16022
C         17.25947        5.81909       -8.43349
C         18.35033        6.39076       -9.36072
O         19.02950        7.39356       -8.63717
C         20.12725        7.99002       -9.35472
C         20.74195        9.07106       -8.48328
C         21.92205        9.77843       -9.16052
C         22.51319       10.90619       -8.30571
C         23.68876       11.61947       -8.97725
C         16.18528        6.88260       -8.16028
O         15.34571        6.43330       -7.12239
C         14.21258        7.28799       -6.90095
C         13.27027        6.61139       -5.91939
C         12.05732        7.48660       -5.58187
C         11.01764        6.78356       -4.70190
C          9.82727        7.68283       -4.35271
C          8.72724        6.98452       -3.54675
C          7.56070        7.91286       -3.19280
C          6.42568        7.22649       -2.42508
C          5.27770        8.17671       -2.07441
H          1.80896       -7.83564      -14.56120
H          1.48158       -6.09288      -14.51023
H          1.67281       -7.00310      -13.00051
H          3.90507       -6.55830      -15.09091
H          4.09499       -7.46357      -13.59355
H          3.57786       -5.38242      -12.26961
H          3.39063       -4.47659      -13.76843
H          5.78959       -4.97125      -14.36787
H          5.97678       -5.87915      -12.87015
H          5.45872       -3.79766      -11.54415
H          5.27373       -2.88985      -13.04216
H          7.67220       -3.38841      -13.64010
H          7.85672       -4.29583      -12.14185
H          7.34077       -2.21125      -10.81780
H          7.16029       -1.30525      -12.31770
H          9.55785       -1.81972      -12.91357
H          9.73713       -2.71661      -11.40828
H          9.23002       -0.62110      -10.10000
H          9.05092        0.27496      -11.60609
H         11.44636       -0.24706      -12.19967
H         11.62444       -1.13854      -10.69078
H         11.10947        0.97008       -9.39513
H         10.95269        1.85495      -10.91052
H         13.35637        1.28628      -11.47194
H         13.50212        0.44091       -9.93275
H         12.96523        2.60391       -8.71901
H         12.87279        3.43385      -10.27019
H         15.28777        2.80777      -10.72882
H         15.34545        2.00442       -9.16093
H         14.80433        4.25630       -8.04177
H         14.77603        4.99812       -9.63904
H         17.16049        4.29164       -9.99900
H         17.09742        2.51207       -8.02232
H         18.63936        2.46157       -5.98356
H         18.90383        3.98643       -5.20712
H         18.52541        6.07724       -6.69618
H         17.88313        6.79149      -10.28271
H         19.04255        5.57781       -9.66023
H         19.75200        8.41427      -10.30475
H         20.86750        7.20607       -9.60547
H         21.07204        8.61986       -7.53273
H         19.96038        9.80543       -8.22965
H         21.59680       10.19199      -10.13088
H         22.71223        9.04345       -9.39293
H         22.83558       10.49431       -7.33447
H         21.71970       11.63694       -8.07568
H         24.51627       10.92419       -9.18152
H         24.08175       12.42465       -8.34245
H         23.38968       12.06894       -9.93553
H         15.61763        7.06344       -9.09517
H         16.68785        7.83255       -7.89688
H         13.70028        7.47249       -7.86542
H         14.55704        8.26672       -6.51523
H         13.82575        6.36339       -5.00025
H         12.93404        5.65489       -6.35361
H         11.56999        7.81520       -6.51641
H         12.39912        8.40760       -5.07921
H         11.49744        6.42913       -3.77287
H         10.65502        5.87854       -5.22038
H          9.39094        8.08281       -5.28502
H         10.18948        8.56143       -3.79057
H          9.15745        6.56624       -2.61969
H          8.34722        6.12048       -4.12005
H          7.15404        8.35489       -4.11978
H          7.93987        8.76241       -2.59766
H          6.82945        6.77814       -1.50140
H          6.03893        6.38490       -3.02453
H          5.62576        9.00733       -1.44245
H          4.47708        7.65879       -1.52890
H          4.83195        8.61608       -2.97927
