36

C          0.73965       -0.15063        0.22354
C          2.26909       -0.17644        0.26922
C          2.85967       -1.50775       -0.21141
C          4.39000       -1.54890       -0.14127
C          4.96777       -2.88395       -0.62024
C          6.51511       -2.91370       -0.52028
C          7.06621       -4.21612       -0.96309
N          7.29994       -5.27373       -0.16379
N          7.71876       -6.27450       -0.91675
N          7.75574       -5.87008       -2.16341
N          7.34344       -4.57766       -2.24018
C          7.33268       -3.77482       -3.47725
C          8.64085       -3.01380       -3.67761
O          9.67512       -3.98064       -3.79722
C          8.15019       -6.72628       -3.28033
H          0.34800        0.81453        0.57053
H          0.30692       -0.93335        0.86345
H          0.36554       -0.31203       -0.79815
H          2.61211        0.02049        1.29860
H          2.67326        0.64396       -0.34743
H          2.53265       -1.69912       -1.24868
H          2.44474       -2.33116        0.39514
H          4.71634       -1.36442        0.89617
H          4.81132       -0.72675       -0.74579
H          4.65799       -3.07395       -1.66247
H          4.56140       -3.71234       -0.01952
H          6.82454       -2.77692        0.52510
H          6.95364       -2.08901       -1.10161
H          6.48427       -3.08417       -3.39950
H          7.14075       -4.45430       -4.31698
H          8.81731       -2.33010       -2.82847
H          8.52651       -2.40471       -4.59157
H         10.52998       -3.53299       -3.89816
H          8.46469       -7.67015       -2.82514
H          8.97844       -6.25622       -3.82185
H          7.28823       -6.89850       -3.93770
