49

C          0.69586        5.19713        5.37312
C          2.18082        5.17949        5.74213
C          2.96344        4.07533        5.02259
C          4.45485        4.04684        5.37254
C          5.23486        2.98526        4.59058
C          6.73454        2.96458        4.90817
C          7.50877        1.96514        4.04050
C          9.02529        1.99757        4.23256
N          9.46080        1.63591        5.59977
C         10.30039        0.65661        5.95330
N         10.45540       -0.46831        5.25380
C          9.44426       -1.13233        4.41510
C          9.47729       -2.64665        4.65258
C          8.46163       -3.35166        3.76192
Br         8.49056       -5.28043        4.07649
N         11.06269        0.86205        7.07691
C         11.50641       -0.12286        8.03462
C         10.37901       -0.77367        8.88757
F          9.68840        0.22210        9.50421
F          9.52425       -1.43863        8.05180
F         12.19612       -1.12982        7.40610
F         12.35276        0.51974        8.87106
H          0.15966        5.99525        5.90367
H          0.20842        4.24422        5.62702
H          0.55421        5.36325        4.29474
H          2.29094        5.05461        6.83277
H          2.63263        6.15717        5.50253
H          2.85073        4.20574        3.93186
H          2.51272        3.09489        5.25682
H          4.57606        3.87328        6.45638
H          4.89482        5.03976        5.17244
H          5.10193        3.16220        3.50948
H          4.80467        1.98848        4.78971
H          6.86702        2.72947        5.98021
H          7.15176        3.97576        4.75748
H          7.32174        2.18602        2.97730
H          7.13034        0.94407        4.21176
H          9.40741        3.01375        4.04475
H          9.54100        1.33253        3.53110
H          9.20560        2.28766        6.33768
H         11.27381       -1.02376        5.49517
H          9.63345       -0.90628        3.35420
H          8.46089       -0.72206        4.68032
H          9.26236       -2.86131        5.70906
H         10.48532       -3.03620        4.43638
H          8.67760       -3.21683        2.69572
H          7.43409       -3.03002        3.96764
H         11.22414        1.82167        7.37200
H         10.78821       -1.47111        9.63505
