43

O          5.13944        4.13780       -0.20772
C          4.83777        2.74296       -0.08892
C          3.37873        2.58517       -0.51183
C          2.41905        3.26668        0.48927
N          1.01886        3.12464        0.09656
C          0.31337        4.20700       -0.63232
C         -0.81823        3.48208       -1.38298
N         -0.85248        2.19022       -0.66700
C          0.29361        1.99654        0.04145
N          0.55239        0.78395        0.53991
C          1.32793        0.41802        1.74233
C          0.69182        1.01138        3.00862
O         -0.66459        0.57753        3.06824
C          1.43331       -1.10618        1.77814
N         -1.71307        1.11281       -0.88553
C         -3.04826        1.35428       -0.31713
C         -1.73134        0.67609       -2.29112
O          3.16602        3.09607       -1.82444
H          6.10048        4.26064       -0.20867
H          4.98287        2.38384        0.94705
H          5.46854        2.13776       -0.76026
H          3.14717        1.50806       -0.55712
H          2.63134        4.34277        0.53042
H          2.57146        2.87918        1.50702
H          1.01049        4.69945       -1.31838
H         -0.07251        4.94350        0.08876
H         -0.58324        3.33458       -2.44871
H         -1.77902        4.00314       -1.29406
H         -0.23933        0.16535        0.32189
H          2.34158        0.83569        1.65273
H          0.74993        2.11628        2.97585
H          1.27385        0.66857        3.88159
H         -1.01117        0.74674        3.95707
H          0.44223       -1.56686        1.88673
H          2.04481       -1.42122        2.63251
H          1.90359       -1.48508        0.86215
H         -2.94136        1.60746        0.74370
H         -3.62687        0.42627       -0.39959
H         -3.60196        2.15655       -0.83846
H         -0.70393        0.49605       -2.63032
H         -2.21788        1.40350       -2.96639
H         -2.28680       -0.26769       -2.34626
H          3.75163        3.87256       -1.90822
