84

C          2.28537        1.85440        0.33697
C          3.73407        1.38560        0.49067
C          3.95421       -0.07216        0.07010
C          5.41754       -0.51313        0.16838
C          5.64546       -2.00119       -0.11933
C          7.12754       -2.38716       -0.13611
C          7.38647       -3.89070       -0.29219
C          8.88373       -4.21366       -0.30816
C          9.20492       -5.69710       -0.37550
O         10.63403       -5.82867       -0.34329
C         11.10624       -7.15237       -0.29158
C         12.60432       -7.08413        0.05194
C         13.34579       -8.36621       -0.33087
N         13.23809       -9.21668        0.90491
C         13.45996       -8.28039        2.09503
C         12.97016       -6.87275        1.56766
C         11.91756       -6.18354        2.44577
C         11.93212       -4.66453        2.29013
O         10.76969       -4.16196        2.92634
C         10.65687       -2.74589        2.81042
C          9.30451       -2.32274        3.36780
O          9.12892       -0.96869        2.99545
C          7.90945       -0.40060        3.45938
C          7.83734        1.01002        2.89299
O          6.59434        1.56987        3.27810
C          6.43635        2.89996        2.80490
C         12.87451       -8.85261        3.35914
C         13.61359       -8.75124        4.54448
C         13.09892       -9.19635        5.76238
C         11.82879       -9.77055        5.79781
C         11.07441       -9.90554        4.62875
C         11.59368       -9.44589        3.41736
O         10.92255       -9.54569        2.20914
C          9.59145      -10.09696        2.19717
H          2.16496        2.90161        0.64715
H          1.60202        1.24708        0.94932
H          1.94794        1.77708       -0.70749
H          4.05441        1.50410        1.53865
H          4.39664        2.03787       -0.10434
H          3.59377       -0.21753       -0.96345
H          3.32995       -0.72827        0.70249
H          5.79174       -0.27819        1.17846
H          6.02559        0.09145       -0.52802
H          5.18629       -2.26700       -1.08758
H          5.11567       -2.60227        0.64087
H          7.61044       -2.03338        0.79051
H          7.63273       -1.84608       -0.95516
H          6.90983       -4.25618       -1.21801
H          6.89831       -4.43121        0.53797
H          9.35163       -3.81252        0.60207
H          9.36645       -3.71084       -1.16146
H          8.80490       -6.15981       -1.29858
H          8.76837       -6.23490        0.48995
H         10.97957       -7.65669       -1.27321
H         10.54005       -7.74323        0.45569
H         13.00654       -6.25105       -0.54085
H         14.41406       -8.19151       -0.51334
H         12.91901       -8.90480       -1.18569
H         13.89455      -10.00447        0.91693
H         12.27139       -9.59235        1.02673
H         14.54967       -8.23497        2.22289
H         13.87198       -6.24101        1.58746
H         12.10517       -6.42657        3.50102
H         10.90558       -6.54832        2.22177
H         11.93113       -4.37645        1.22283
H         12.84629       -4.24213        2.75626
H         10.71747       -2.43652        1.74969
H         11.47710       -2.24145        3.35433
H          9.27363       -2.44574        4.46743
H          8.50850       -2.96251        2.93599
H          7.87801       -0.37784        4.56469
H          7.04218       -0.99205        3.10759
H          7.92990        0.96844        1.78965
H          8.68208        1.61462        3.27712
H          5.45627        3.24944        3.15022
H          6.46455        2.94114        1.70059
H          7.22100        3.56727        3.20581
H         14.60822       -8.30172        4.50834
H         13.68776       -9.09965        6.67346
H         11.41397      -10.12795        6.74031
H         10.08971      -10.36678        4.67430
H          8.91913       -9.49332        2.82249
H          9.59328      -11.14234        2.53703
H          9.26274      -10.04930        1.15401
