72

C          0.58374       -0.15990       -0.50501
C          2.11266       -0.20875       -0.53961
C          2.74412        1.07690       -1.08254
C          4.27473        1.04423       -1.11782
C          4.90194        2.32188       -1.68368
C          6.43307        2.29475       -1.70944
C          7.05915        3.57004       -2.28243
C          8.59070        3.54679       -2.29198
C          9.21910        4.81948       -2.86749
C         10.75148        4.78946       -2.87172
C         11.37239        6.06066       -3.46447
C         12.88957        6.01121       -3.46958
O         13.39039        7.25188       -4.02009
C         14.79343        7.29539       -4.10976
C         15.12460        8.57856       -4.80178
N         14.20992        9.34554       -5.42165
C         14.81256       10.45169       -5.99429
C         16.15796       10.35078       -5.70426
N         16.31428        9.18059       -4.95686
C         17.59460        8.63479       -4.50592
O         17.86388        7.51158       -5.29226
C         19.14370        6.90696       -4.98926
C         19.30161        5.67002       -5.85437
C         20.64796        4.96949       -5.63567
C         20.78445        3.70138       -6.48091
N         14.09015       11.36019       -6.73642
N         14.65298       12.62576       -6.96592
N         12.69721       11.29944       -6.50088
H          0.15788       -1.09676       -0.12024
H          0.16880        0.00574       -1.51054
H          0.22597        0.65772        0.13831
H          2.44121       -1.06153       -1.15753
H          2.49968       -0.40319        0.47490
H          2.41132        1.93240       -0.46843
H          2.35925        1.26784       -2.09996
H          4.60686        0.17903       -1.71832
H          4.65923        0.86962       -0.09750
H          4.56347        3.18845       -1.08878
H          4.52278        2.49080       -2.70694
H          6.77265        1.42550       -2.29973
H          6.81173        2.13146       -0.68515
H          6.71135        4.44066       -1.69906
H          6.68970        3.72716       -3.31105
H          8.93828        2.67473       -2.87314
H          8.95882        3.39178       -1.26273
H          8.87342        5.69318       -2.28805
H          8.85485        4.97365       -3.89809
H         11.09575        3.90984       -3.44232
H         11.11536        4.64808       -1.83955
H         11.04602        6.94034       -2.88668
H         11.01527        6.20376       -4.49716
H         13.25930        5.16988       -4.08469
H         13.28634        5.88793       -2.44483
H         15.20237        6.44645       -4.69515
H         15.28278        7.26696       -3.11328
H         13.20609        9.16573       -5.43210
H         17.00083       10.97098       -5.97625
H         17.51490        8.38302       -3.43009
H         18.34888        9.43400       -4.62431
H         19.18106        6.64808       -3.91423
H         19.94579        7.64123       -5.19133
H         19.19740        5.95994       -6.91197
H         18.47788        4.97239       -5.63251
H         20.76332        4.71655       -4.56876
H         21.46714        5.66643       -5.87720
H         20.00521        2.96840       -6.22619
H         21.75855        3.22114       -6.32209
H         20.69349        3.92590       -7.55350
H         15.22687       12.61480       -7.80954
H         15.19815       12.95780       -6.16384
H         12.22601       11.45236       -7.39434
H         12.42318       12.06570       -5.87507
