40

N          0.32094       -1.50297        0.68356
C          1.77477       -1.42496        0.80357
C          2.43054       -1.74785       -0.54563
C          3.95732       -1.64640       -0.48018
C          4.58039       -1.96584       -1.84218
N          6.05903       -1.99311       -1.77920
N          6.72671       -3.00833       -1.28976
N          8.01410       -2.70110       -1.27149
C          8.15065       -1.45806       -1.76144
N          6.92241       -0.98860       -2.09086
C          6.53182        0.30544       -2.66961
C          6.26640        1.37009       -1.59353
C          5.55435        2.59677       -2.17217
C          4.12681        2.27630       -2.61615
O          3.63840        1.16696       -2.54474
O          3.40240        3.29898       -3.11391
C          9.43258       -0.71856       -1.93984
C         10.62962       -1.42225       -1.29141
H         -0.13685       -1.08214        1.49106
H          0.00529       -2.47256        0.63940
H          2.20728       -2.08380        1.58517
H          2.03197       -0.39195        1.08812
H          2.02860       -1.05980       -1.30434
H          2.14223       -2.76780       -0.85361
H          4.35998       -2.34682        0.26828
H          4.24845       -0.62950       -0.17417
H          4.28499       -1.23071       -2.60039
H          4.30450       -2.97036       -2.18822
H          5.63638        0.13420       -3.27693
H          7.34919        0.59615       -3.34292
H          7.21260        1.67554       -1.12614
H          5.63700        0.93432       -0.80607
H          6.10903        3.02358       -3.02484
H          5.51661        3.38994       -1.40921
H          3.90327        4.13478       -3.10181
H          9.31289        0.29802       -1.53184
H          9.60221       -0.59126       -3.02374
H         10.48845       -1.53272       -0.20934
H         11.53472       -0.82844       -1.46204
H         10.78566       -2.42059       -1.71625
