111

C          2.06624        1.60706       -0.34384
C          3.16951        0.66095        0.13530
C          3.61271       -0.34036       -0.93663
C          4.71891       -1.30090       -0.48721
C          5.14894       -2.26589       -1.59419
C          6.22809       -3.28166       -1.19757
C          6.56460       -4.20705       -2.36821
C          7.51502       -5.36528       -2.04234
N          7.60684       -6.30846       -3.16945
C          6.74803       -7.33420       -3.34678
S          6.74073       -8.35098       -4.67053
S          5.57301       -7.49632       -1.97682
C          4.70007       -9.04922       -2.32659
C          3.26420       -8.82719       -2.81426
C          3.20091       -8.43537       -4.29946
N          1.92749       -7.72363       -4.60533
C          0.87699       -8.50097       -4.87107
C         -0.40707       -7.98025       -5.03619
C         -1.50484       -8.83999       -5.31332
C         -2.76951       -8.31306       -5.43553
C         -2.96256       -6.92008       -5.27920
C         -1.90582       -6.06793       -5.01735
C         -0.58163       -6.56682       -4.89389
C          0.57261       -5.73233       -4.65768
C          1.82421       -6.32992       -4.51483
C          3.12531       -5.59448       -4.37198
C          3.89758       -5.54521       -5.71539
O          3.63690       -6.35809       -6.59037
C          4.98698       -4.54398       -5.88413
C          4.97556       -3.27687       -5.27689
C          5.99355       -2.36117       -5.54319
C          7.05180       -2.71720       -6.38370
C          7.08319       -3.98717       -6.97212
C          6.04943       -4.88987       -6.74041
C          0.26098       -4.24038       -4.59677
C          1.31117       -3.12691       -4.53455
C          0.63667       -1.75142       -4.61350
C          1.67158       -0.62508       -4.55575
S          0.85312        0.98016       -4.54303
O          0.27556        1.23975       -5.84605
O          0.07192        1.07405       -3.33572
O          2.13780        1.96498       -4.36396
C          8.65437       -6.03278       -4.16890
C          9.94657       -6.80823       -3.89355
C         11.01946       -6.53221       -4.95130
C         12.27456       -7.39273       -4.77104
C         13.36543       -7.11165       -5.80928
C         14.58407       -8.03143       -5.68030
C         15.68188       -7.74690       -6.71140
C         16.88182       -8.69034       -6.59518
H          1.78217        2.32011        0.44162
H          1.16039        1.05759       -0.63821
H          2.38734        2.18877       -1.22080
H          2.82625        0.10850        1.02615
H          4.04541        1.24575        0.46267
H          3.95410        0.21659       -1.82864
H          2.73344       -0.92890       -1.26149
H          4.37490       -1.87409        0.39096
H          5.59309       -0.72017       -0.14660
H          5.50476       -1.68212       -2.46131
H          4.26016       -2.82187       -1.94948
H          5.87314       -3.87874       -0.34009
H          7.13204       -2.75313       -0.85166
H          6.98474       -3.62209       -3.20010
H          5.62826       -4.64326       -2.74892
H          7.18649       -5.90867       -1.14400
H          8.53167       -5.00342       -1.83289
H          4.70028       -9.59973       -1.37686
H          5.31408       -9.59656       -3.06109
H          2.78764       -8.04464       -2.20351
H          2.67752       -9.74532       -2.64917
H          3.23119       -9.31670       -4.95015
H          4.05414       -7.82473       -4.60051
H          1.07286       -9.57070       -4.93759
H         -1.32794       -9.91090       -5.42214
H         -3.62059       -8.95983       -5.64705
H         -3.96853       -6.50859       -5.36813
H         -2.11110       -5.00635       -4.90623
H          3.79615       -6.07664       -3.63915
H          2.96625       -4.59387       -3.97671
H          4.17089       -2.98481       -4.60423
H          5.96650       -1.37162       -5.08590
H          7.85374       -2.00485       -6.58130
H          7.91456       -4.26849       -7.61912
H          6.05096       -5.87811       -7.19958
H         -0.42399       -4.10165       -3.74190
H         -0.35469       -4.03158       -5.48687
H          2.02459       -3.22096       -5.36635
H          1.88003       -3.16648       -3.59180
H         -0.07286       -1.63333       -3.77990
H          0.05502       -1.66864       -5.54490
H          2.34354       -0.62906       -5.42578
H          2.27182       -0.65997       -3.63526
H          2.22002        2.47529       -5.19260
H          8.83316       -4.94712       -4.16006
H          8.25405       -6.30376       -5.15413
H          9.70859       -7.88336       -3.87831
H         10.32963       -6.55296       -2.89145
H         11.29747       -5.46345       -4.93015
H         10.59573       -6.71751       -5.95404
H         11.98822       -8.45785       -4.82152
H         12.68462       -7.23776       -3.75782
H         13.68918       -6.05926       -5.72405
H         12.93905       -7.21531       -6.82291
H         14.25757       -9.08206       -5.77721
H         15.00661       -7.94083       -4.66388
H         16.02057       -6.70266       -6.60180
H         15.25339       -7.81965       -7.72552
H         17.35279       -8.61891       -5.60334
H         17.65088       -8.45851       -7.34457
H         16.58100       -9.73845       -6.74207
