85

C          0.46639       -0.17853       -0.37660
C          1.99367       -0.15063       -0.28011
C          2.63528        0.93421       -1.15138
C          4.16524        0.95935       -1.07656
C          4.80633        2.03280       -1.96226
C          6.33835        2.02201       -1.93247
C          6.97701        3.07156       -2.84858
C          8.50703        2.99766       -2.89974
C          9.13596        3.99799       -3.87577
C         10.65636        3.85896       -4.01020
C         11.26590        4.79716       -5.05770
C         12.77051        4.59101       -5.26898
C         13.35733        5.48894       -6.36360
C         14.83933        5.21692       -6.65333
C         15.39077        6.10439       -7.77544
C         16.84619        5.79261       -8.13041
N         17.29750        6.67835       -9.21054
C         18.43266        6.55384       -9.92701
N         18.70769        7.43104      -10.89843
C         19.90230        7.36758      -11.76200
C         20.31018        8.78920      -12.16973
C         19.26539        9.55354      -12.97723
O         18.09834        9.76355      -12.17074
C         17.10989       10.58616      -12.82072
C         15.93905       10.78588      -11.87955
C         21.01136        6.62519      -11.01774
C         20.50265        5.29467      -10.46197
N         19.28977        5.55042       -9.66402
C         21.53634        4.57604       -9.57407
C         22.71756        4.06550      -10.34098
C         23.99325        4.45804      -10.26421
Br        24.59599        5.84482       -9.12456
Br        22.32895        2.64078      -11.56369
H          0.03542       -0.96537        0.25778
H          0.13656       -0.36560       -1.40945
H          0.02981        0.78043       -0.05997
H          2.39919       -1.13427       -0.57143
H          2.29497        0.00193        0.76987
H          2.23723        1.92083       -0.85546
H          2.32499        0.78613       -2.20085
H          4.55773       -0.03154       -1.36620
H          4.47775        1.11375       -0.02888
H          4.43928        3.02786       -1.65484
H          4.46527        1.89352       -3.00347
H          6.69660        1.01981       -2.22767
H          6.68791        2.17505       -0.89643
H          6.66657        4.08049       -2.52478
H          6.57792        2.94631       -3.87096
H          8.80715        1.97501       -3.19007
H          8.91928        3.15815       -1.88809
H          8.88499        5.02669       -3.56314
H          8.67542        3.86365       -4.87075
H         10.89846        2.81526       -4.27853
H         11.13333        4.03812       -3.03099
H         11.07365        5.84583       -4.77089
H         10.74523        4.64612       -6.01994
H         12.95480        3.53415       -5.53063
H         13.30593        4.76755       -4.32012
H         13.22743        6.54769       -6.08030
H         12.77869        5.34870       -7.29332
H         14.96463        4.15604       -6.93047
H         15.43112        5.36971       -5.73492
H         15.31315        7.16402       -7.47598
H         14.77188        5.97976       -8.67951
H         16.92012        4.74416       -8.46699
H         17.49098        5.91500       -7.24305
H         16.71149        7.48113       -9.41503
H         18.07279        8.21251      -11.10721
H         19.63715        6.80257      -12.67482
H         21.22033        8.71582      -12.78357
H         20.57179        9.36632      -11.26885
H         18.99231        8.99865      -13.89599
H         19.68005       10.52886      -13.28869
H         16.78914       10.09993      -13.76009
H         17.57429       11.55353      -13.08326
H         15.45115        9.82995      -11.64095
H         15.18781       11.43243      -12.35178
H         16.26177       11.26584      -10.94608
H         21.38767        7.25002      -10.19190
H         21.84967        6.43377      -11.70003
H         20.23951        4.62392      -11.29809
H         19.03073        4.87731       -8.95060
H         21.04748        3.71724       -9.08248
H         21.88848        5.25953       -8.78665
H         24.79505        4.00702      -10.84404
