89

C          0.50799        1.23302        1.71951
C          1.99759        1.58629        1.72791
C          2.58163        1.74495        0.31985
C          4.07847        2.07714        0.30743
C          4.62769        2.24029       -1.11769
C          6.11135        2.53732       -1.12158
O          6.52767        2.69815       -2.54064
C          7.81411        2.80280       -2.78776
O          8.73981        2.77449       -1.98809
C          8.09650        2.99855       -4.28413
N          9.58337        2.89296       -4.44382
C         10.02789        1.52597       -4.92792
C         11.56282        1.45987       -4.96641
N         12.16970        2.51956       -5.76183
C         11.73270        3.82145       -5.28639
C         10.20441        3.99964       -5.26468
C         12.10304        2.31774       -7.21646
C         13.20022        1.37768       -7.72311
O         12.79706        0.97783       -9.01625
C         13.74711        0.16500       -9.70714
C         13.05055       -0.47322      -10.88938
O         12.22956       -1.52514      -10.38674
C         11.41597       -2.19756      -11.26789
C         10.68877       -3.26755      -10.72510
C          9.83446       -4.00868      -11.52985
C          9.66590       -3.72555      -12.90014
C         10.39497       -2.64764      -13.41316
C         11.26798       -1.88842      -12.62265
C          8.74648       -4.59531      -13.76760
C          9.30013       -6.05224      -13.93096
C         10.74519       -6.40109      -14.40363
C         11.15536       -5.70761      -15.71624
C         11.80811       -6.09616      -13.32756
C         10.74220       -7.92665      -14.64775
C          7.37185       -4.73327      -13.06480
C          8.45800       -3.94960      -15.13858
H          0.11666        1.12502        2.73985
H          0.32572        0.28461        1.19288
H         -0.08573        2.01062        1.21667
H          2.55870        0.80503        2.26796
H          2.15452        2.51916        2.29526
H          2.02882        2.53510       -0.21758
H          2.41165        0.81557       -0.25126
H          4.63436        1.28009        0.83066
H          4.25544        3.00286        0.88123
H          4.09376        3.05558       -1.63126
H          4.44156        1.32171       -1.69674
H          6.71416        1.72593       -0.69134
H          6.36135        3.47505       -0.60516
H          7.76131        3.99660       -4.59685
H          7.58669        2.25095       -4.90232
H          9.90696        2.97644       -3.44593
H          9.58345        1.38183       -5.92219
H          9.60655        0.78557       -4.23499
H         11.85174        0.47731       -5.36266
H         11.95685        1.51298       -3.93666
H         12.16462        4.61228       -5.91392
H         12.12406        3.97569       -4.26495
H          9.76737        3.94189       -6.27123
H          9.91237        4.95123       -4.79997
H         12.21713        3.29602       -7.70381
H         11.13392        1.90737       -7.56496
H         13.30940        0.49830       -7.05556
H         14.17619        1.89937       -7.73407
H         14.14028       -0.62376       -9.03986
H         14.59580        0.78120      -10.05812
H         13.80010       -0.87049      -11.59729
H         12.44360        0.28765      -11.41094
H         10.81679       -3.50799       -9.66907
H          9.30116       -4.84571      -11.07799
H         10.30400       -2.37909      -14.46478
H         11.81722       -1.06684      -13.08068
H          8.60136       -6.55609      -14.62133
H          9.16650       -6.56198      -12.96142
H         11.30737       -4.62846      -15.58130
H         10.40814       -5.85624      -16.50919
H         12.10741       -6.12435      -16.07760
H         11.94430       -5.02010      -13.16655
H         12.77985       -6.51260      -13.63323
H         11.54027       -6.54875      -12.36130
H         10.03599       -8.20270      -15.44483
H         10.45437       -8.47637      -13.73893
H         11.74119       -8.27571      -14.94697
H          7.44910       -5.23393      -12.09056
H          6.68571       -5.32777      -13.68535
H          6.91745       -3.74523      -12.90406
H          9.35239       -3.78601      -15.74817
H          7.95059       -2.98186      -15.01405
H          7.78872       -4.60245      -15.71596
