60

F          1.42698        0.37337       -3.16785
C          2.51182        0.16220       -2.32439
C          3.25244        1.49805       -2.21912
S          4.62243        1.41189       -1.02252
C          5.89590        0.52006       -1.96809
C          7.09849        0.14982       -1.09879
C          8.04292       -0.81494       -1.83410
S          8.77561       -0.15195       -3.35601
C          7.77038       -0.89837       -4.65813
S          6.42106       -1.84263       -4.35642
N          8.24400       -0.62721       -5.89292
C          9.42030        0.19980       -6.19709
C          8.99983        1.37102       -7.09133
O          8.36625        0.91775       -8.27983
C          7.21704        0.12752       -7.98180
C          7.56758       -1.08333       -7.11599
C          5.20734        3.14854       -1.02929
C          4.42545        3.99993       -0.02580
C          4.56994        5.50362       -0.30656
S          3.60384        6.07990       -1.73380
C          4.83938        6.30849       -3.02928
S          6.40507        5.73316       -2.90059
N          4.35929        6.98737       -4.09211
C          2.99047        7.50325       -4.23752
C          2.34477        6.88996       -5.48417
O          3.11852        7.14589       -6.64823
C          4.44087        6.63160       -6.51192
C          5.16067        7.22670       -5.30093
H          3.13817       -0.62733       -2.76740
H          2.13300       -0.17124       -1.34580
H          2.57760        2.27670       -1.83494
H          3.65821        1.81849       -3.18888
H          6.17429        1.14437       -2.82967
H          5.40423       -0.38478       -2.35588
H          6.75885       -0.35190       -0.17828
H          7.64835        1.05305       -0.79328
H          7.52546       -1.74508       -2.11645
H          8.89697       -1.05792       -1.18838
H         10.15843       -0.42929       -6.72050
H          9.88381        0.57249       -5.27694
H          9.88390        1.94182       -7.40471
H          8.32502        2.04318       -6.52391
H          6.80936       -0.20369       -8.94572
H          6.45393        0.74389       -7.46637
H          8.25359       -1.75382       -7.65811
H          6.67112       -1.64397       -6.82914
H          5.13585        3.52306       -2.06175
H          6.27356        3.08732       -0.77365
H          4.78209        3.78997        0.99409
H          3.35460        3.74160       -0.04056
H          5.61585        5.79557       -0.48550
H          4.17667        6.07456        0.54508
H          3.04698        8.59868       -4.34519
H          2.39354        7.28077       -3.34618
H          1.35846        7.33998       -5.65763
H          2.21643        5.79892       -5.33596
H          4.97346        6.89577       -7.43468
H          4.41362        5.52741       -6.42140
H          5.27631        8.31559       -5.42450
H          6.14876        6.77553       -5.15794
