51

O          3.70852       -0.33656       -1.34349
C          4.01499       -1.58035       -0.71899
C          2.84959       -1.94651        0.20108
C          1.50517       -1.98056       -0.56805
C          0.31460       -2.02086        0.32834
C         -0.38612       -0.96745        0.88127
N         -1.37030       -1.52720        1.67437
C         -1.30173       -2.86094        1.62139
N         -0.28057       -3.19055        0.81576
C          0.15611       -4.56839        0.49576
C         -0.77188       -5.66349        1.00887
C         -0.23202       -7.03956        0.59749
C         -1.14911       -8.19784        1.02591
N         -0.60902       -9.49047        0.65307
C          0.21594      -10.26783        1.44268
C          0.64788      -11.34111        0.68757
C          0.07549      -11.20607       -0.60882
C         -0.68849      -10.05444       -0.60534
C         -0.22877        0.51436        0.75624
C         -1.57721        1.26689        0.70188
O         -2.36390        0.95076        1.88230
C         -1.40261        2.76825        0.53977
O          3.10738       -3.17684        0.88130
H          4.49085       -0.02338       -1.82217
H          4.93225       -1.52037       -0.10932
H          4.15216       -2.38407       -1.47318
H          2.77491       -1.18111        0.99029
H          1.50609       -2.82922       -1.26923
H          1.44986       -1.07019       -1.18225
H         -2.05919       -0.92952        2.15068
H         -1.96159       -3.54941        2.13270
H          1.16840       -4.67849        0.90821
H          0.23418       -4.62775       -0.59968
H         -1.78726       -5.52551        0.60009
H         -0.84945       -5.61744        2.10807
H          0.76459       -7.20036        1.03766
H         -0.10300       -7.08113       -0.49575
H         -2.14432       -8.08645        0.56685
H         -1.29604       -8.18931        2.11666
H          0.40477      -10.00130        2.47791
H          1.28804      -12.14496        1.03655
H          0.19330      -11.88615       -1.44597
H         -1.29578       -9.59918       -1.38170
H          0.35434        0.73543       -0.14949
H          0.36119        0.90050        1.60593
H         -2.17064        0.86818       -0.13666
H         -2.21299        1.64121        2.54877
H         -0.82041        3.19295        1.37305
H         -2.38052        3.26505        0.50487
H         -0.87023        3.00542       -0.39113
H          3.59261       -3.76716        0.28021
