47

C          1.44319        0.50719       -1.46294
C          2.77591        0.28786       -0.74488
C          3.16198        1.47983        0.14393
C          4.53556        1.31644        0.80020
C          4.61190        0.19506        1.85215
C          5.94832        0.42028        2.56973
N          6.36458        1.82197        2.17679
C          5.17909        2.53872        1.53844
C          5.73662        3.62052        0.56609
C          6.81034        3.13736       -0.40548
O          7.65238        2.30789       -0.00056
C          6.87738        3.65460       -1.78026
C          7.90244        3.16691       -2.62181
C          8.01976        3.62959       -3.92607
C          7.12113        4.58893       -4.41135
C          6.10397        5.08319       -3.58813
C          5.97863        4.62049       -2.28091
N          4.34270        3.07337        2.62267
C          5.05446        3.66710        3.75785
C          3.27776        3.99143        2.18642
H          1.17970       -0.35988       -2.08220
H          1.48268        1.38635       -2.12280
H          0.62310        0.66367       -0.74734
H          3.57494        0.11263       -1.48481
H          2.71497       -0.62758       -0.13537
H          2.38841        1.61391        0.91633
H          3.15394        2.38886       -0.48192
H          5.24677        1.06769       -0.00915
H          4.57051       -0.79914        1.39437
H          3.77476        0.28408        2.55631
H          6.74053       -0.26160        2.23970
H          5.86952        0.36782        3.66104
H          7.10320        1.84210        1.38780
H          6.73805        2.35188        2.97037
H          6.18253        4.44750        1.14666
H          4.88787        4.05290        0.02775
H          8.59571        2.42424       -2.22775
H          8.81212        3.24832       -4.57018
H          7.21553        4.95326       -5.43483
H          5.40980        5.83249       -3.96802
H          5.18340        5.02696       -1.65657
H          5.58958        2.91469        4.35798
H          4.30710        4.09756        4.43446
H          5.75347        4.48755        3.48868
H          2.77056        3.61961        1.29400
H          3.64650        5.01457        1.97926
H          2.53083        4.05995        2.98703
