51

C          0.71984       -0.85754       -0.55240
C          2.20067       -0.50190       -0.40842
C          3.13808       -1.65213       -0.79308
C          4.62168       -1.28570       -0.66358
C          5.54906       -2.46142       -0.99514
C          7.08684       -2.21520       -0.92156
C          7.48975       -1.03144       -1.85238
C          7.75915        0.08161       -0.97450
N          7.71857       -0.25035        0.28496
C          7.39020       -1.65767        0.51801
Br         8.82020       -2.43895        1.62840
C          7.78230       -3.55810       -1.27388
C          9.31060       -3.60020       -1.50297
P          9.86093       -3.24575       -3.19353
O          9.48578       -1.87657       -3.68637
O         11.41648       -3.53284       -3.05053
C         12.33569       -3.38813       -4.18959
C         12.80408       -4.74991       -4.65762
O          9.25410       -4.42198       -4.09462
C          8.49003       -4.17884       -5.32056
C          9.33692       -4.45082       -6.54762
H          0.07800       -0.01544       -0.26241
H          0.45022       -1.71403        0.08254
H          0.47084       -1.12255       -1.59029
H          2.40845       -0.19949        0.63232
H          2.43125        0.37889       -1.03174
H          2.92968       -1.96858       -1.82947
H          2.92234       -2.52905       -0.15889
H          4.79514       -0.92395        0.36558
H          4.82999       -0.42755       -1.32586
H          5.32841       -2.81555       -2.01521
H          5.31614       -3.30737       -0.32598
H          6.73698       -0.77702       -2.61602
H          8.40344       -1.23143       -2.50961
H          8.00459        1.10540       -1.26519
H          7.94498        0.38154        1.05494
H          6.52388       -1.72551        1.18367
H          7.27501       -3.95348       -2.16732
H          7.53847       -4.26724       -0.46975
H          9.68167       -4.60607       -1.25992
H          9.86114       -2.91418       -0.84575
H         13.16372       -2.77642       -3.80937
H         11.83523       -2.82016       -4.98764
H         13.30250       -5.29300       -3.84438
H         13.52489       -4.62776       -5.47811
H         11.96652       -5.35693       -5.02263
H          8.12296       -3.14335       -5.30442
H          7.63670       -4.86745       -5.25971
H         10.17772       -3.74746       -6.61631
H          8.72299       -4.32787       -7.45101
H          9.72989       -5.47547       -6.54018
