66

C          1.36216        0.17557        0.25762
C          2.88735        0.05229        0.22450
C          3.56382        0.73947        1.41918
C          5.07760        0.52375        1.42440
S          5.80121        1.51030        2.80238
C          7.41770        0.89811        2.86892
N          8.52716        1.56980        2.98663
N          9.55480        0.64346        3.17995
C          9.01673       -0.53389        3.13648
O          7.64805       -0.48209        2.94733
C          9.68404       -1.86707        3.21508
C          8.89038       -2.84171        4.09301
N          7.60482       -3.26534        3.40454
C          6.68809       -4.04064        4.30805
C          5.31903       -4.27884        3.65993
O          4.41933       -4.43022        4.73245
C          3.17399       -5.01688        4.39166
C          2.58699       -5.70747        5.62750
C          3.16876       -7.11502        6.02105
C          4.67626       -7.29866        6.43346
C          5.17024       -6.53128        7.69815
F          6.37717       -7.05185        8.05359
F          5.35666       -5.21181        7.40036
F          4.82378       -8.62426        6.68942
F          5.48078       -6.99238        5.36471
F          2.43112       -7.57327        7.06953
F          2.96556       -7.93647        4.94945
F          2.65777       -4.88963        6.71716
F          1.26473       -5.93234        5.35580
C          7.92712       -3.96858        2.10179
C          8.69770       -3.03412        1.17326
C          9.98575       -2.45589        1.79534
C         11.14401       -3.47148        1.79773
C         12.52777       -2.94978        2.14663
C         12.94684       -1.53768        2.11701
O         12.68896       -2.20761        3.37277
H          0.90681       -0.30928       -0.61565
H          1.04678        1.22872        0.25412
H          0.94060       -0.29374        1.15870
H          3.27551        0.48750       -0.71099
H          3.17214       -1.01447        0.20559
H          3.13848        0.35895        2.36254
H          3.34274        1.81924        1.39289
H          5.53815        0.86471        0.48688
H          5.31925       -0.53832        1.57514
H         10.64995       -1.69805        3.71835
H          8.60973       -2.38305        5.04946
H          9.45873       -3.75824        4.29833
H          7.12081       -2.37963        3.16433
H          6.54348       -3.44275        5.21781
H          7.18410       -4.97918        4.58467
H          5.32445       -5.18009        3.02079
H          5.03786       -3.41140        3.02136
H          3.27596       -5.76477        3.58755
H          2.44188       -4.25320        4.07685
H          4.46611       -6.62468        8.53915
H          6.97935       -4.28037        1.64777
H          8.49229       -4.87172        2.37260
H          8.02998       -2.21462        0.86369
H          8.93447       -3.59251        0.25642
H         10.29060       -1.60923        1.16335
H         11.21597       -3.90765        0.78778
H         10.93322       -4.32329        2.46865
H         13.31442       -3.69840        1.99304
H         12.24011       -0.74083        1.86568
H         13.99757       -1.29952        1.93262
