53

C          6.52386       -4.95509        3.57348
C          6.22848       -3.51086        3.98550
C          6.69379       -2.48226        2.94819
C          6.43248       -1.02957        3.36235
C          6.80351       -0.01582        2.27215
C          6.43303        1.44220        2.58853
C          7.06779        2.03642        3.86566
P          8.88145        2.09338        3.87106
C          9.52100        3.09422        2.47655
O         10.91727        3.00769        2.55007
C         11.57791        3.70689        1.45976
C         13.07359        3.47867        1.55936
C         13.83688        4.23400        0.46036
C         15.34767        3.99479        0.51523
C          9.56278        2.69423        5.44478
C          9.04785        1.95064        6.69021
C          9.40807        0.46018        6.74749
N          8.81554       -0.13597        7.94057
H          6.16641       -5.66750        4.32858
H          7.60320       -5.12298        3.44347
H          6.03315       -5.20787        2.62229
H          6.70854       -3.29683        4.95607
H          5.14525       -3.38836        4.15269
H          6.18602       -2.68076        1.98861
H          7.77184       -2.62086        2.75121
H          6.98732       -0.82282        4.29623
H          5.36523       -0.90752        3.61730
H          6.28495       -0.28849        1.34004
H          7.87895       -0.10213        2.03100
H          5.34348        1.51665        2.72774
H          6.66680        2.08526        1.72639
H          6.78220        1.46249        4.76095
H          6.73378        3.07239        4.03551
H          9.38038        0.79241        3.64666
H          9.13102        4.12787        2.58774
H          9.10598        2.67596        1.53708
H         11.32917        4.78169        1.52864
H         11.17885        3.32177        0.50327
H         13.27971        2.39865        1.48754
H         13.42386        3.80613        2.55152
H         13.63044        5.31336        0.54969
H         13.45235        3.93060       -0.52761
H         15.76915        4.30987        1.48069
H         15.86404        4.55945       -0.27188
H         15.59103        2.93169        0.37549
H          9.31469        3.76636        5.49004
H         10.65672        2.62291        5.33606
H          7.95764        2.05891        6.79138
H          9.47952        2.46071        7.56573
H         10.50991        0.34961        6.66477
H          8.97968       -0.07078        5.87901
H          9.26937        0.20556        8.78918
H          8.92525       -1.14966        7.93841
