72

C          0.85848        0.13550       -0.51667
C          2.38473        0.24112       -0.48655
C          2.94249        0.49185        0.91788
C          4.46740        0.62763        0.96302
C          5.01184        0.89203        2.36986
C          6.52927        1.09648        2.41941
C          7.05013        1.40260        3.82685
C          8.55484        1.68488        3.88497
C          9.04376        2.03139        5.29481
C         10.53588        2.36930        5.36833
C         10.99297        2.73897        6.78479
C         12.49057        3.07477        6.85402
C         13.04021        3.51400        8.21366
C         12.73669        2.52916        9.34748
O         13.25990        2.94605       10.59972
C         12.66616        4.17076       11.02810
C         12.98302        5.28170       10.02488
N         12.46415        4.88756        8.64353
C         12.57570        5.98611        7.65430
C         11.39156        6.56117        7.19739
C         11.42227        7.62190        6.29204
C         12.65784        8.09900        5.85295
C         13.84917        7.53231        6.30971
C         13.83182        6.46600        7.22152
O         14.93978        5.85739        7.72021
C         16.23244        6.37110        7.34012
C         13.14688        4.47741       12.45034
C         14.65338        4.48888       12.64535
F         15.23331        5.56151       11.93036
H          0.48549       -0.04366       -1.53425
H          0.38933        1.05987       -0.14782
H          0.50400       -0.69007        0.11822
H          2.71215        1.05422       -1.15636
H          2.82794       -0.68341       -0.89343
H          2.62724       -0.32881        1.58635
H          2.48508        1.40900        1.32994
H          4.77846        1.44837        0.29288
H          4.93055       -0.28802        0.55574
H          4.73314        0.05449        3.03313
H          4.51468        1.78564        2.78696
H          6.80570        1.92344        1.74190
H          7.03649        0.19864        2.02555
H          6.80998        0.55923        4.49762
H          6.50502        2.27437        4.23031
H          8.79550        2.51739        3.20097
H          9.11092        0.80967        3.50712
H          8.82680        1.18816        5.97355
H          8.45913        2.88694        5.67773
H         10.76147        3.20313        4.68168
H         11.12866        1.50990        5.01131
H         10.75469        1.90307        7.46142
H         10.38281        3.59533        7.12977
H         12.73601        3.84430        6.10580
H         13.07501        2.18684        6.56365
H         14.12205        3.68336        8.15423
H         13.20825        1.56631        9.10844
H         11.64519        2.36119        9.43491
H         11.56170        4.03797       11.06418
H         14.05966        5.44723        9.92795
H         12.48751        6.22429       10.29039
H         11.44921        4.72834        8.74646
H         10.43158        6.17907        7.55541
H         10.49293        8.06657        5.94040
H         12.70304        8.92705        5.14545
H         14.80103        7.92351        5.95597
H         16.95791        5.75553        7.87992
H         16.33896        7.42193        7.64406
H         16.39171        6.26899        6.25705
H         12.73425        3.70173       13.11350
H         12.72042        5.43715       12.77957
H         15.12012        3.56337       12.28129
H         14.90144        4.63330       13.70618
