64

C         10.08515       -6.13959       -4.06238
C          9.65283       -4.77303       -4.59886
C          8.30076       -4.29368       -4.03881
C          8.25718       -4.11582       -2.54405
O          7.37885       -4.49902       -1.79320
O          9.35518       -3.42664       -2.07938
C          9.32915       -3.14086       -0.67871
C          9.72922       -4.37400        0.16873
P          8.87550       -4.30089        1.77055
C          7.13404       -4.83553        1.57158
C          6.23842       -4.13941        2.54984
C          5.75013       -4.62786        3.69616
Br         6.12976       -6.36829        4.32414
Br         5.77166       -2.35095        2.07022
C          9.71605       -5.15380        3.13502
C         11.20226       -4.76618        3.30678
C         11.52165       -3.26955        3.28651
S         10.64118       -2.30035        4.53952
C         12.04606       -1.53170        5.42154
S         13.63158       -1.78916        5.04298
N         11.60232       -0.72634        6.42282
C         12.53784       -0.05438        7.30528
C         12.72855        1.32255        7.17452
C         13.60463        1.97897        8.04180
C         14.27868        1.26197        9.03296
C         14.07458       -0.11529        9.16048
C         13.20219       -0.77928        8.29801
C         10.19720       -0.51734        6.70134
C          9.60923       -1.18394        7.78225
C          8.26476       -0.96013        8.08014
C          7.51249       -0.07192        7.30522
C          8.10690        0.59845        6.23232
C          9.45271        0.38279        5.92958
H         11.03143       -6.45845       -4.51822
H          9.33402       -6.91312       -4.27763
H         10.24089       -6.11968       -2.97217
H          9.55708       -4.81761       -5.69333
H         10.42488       -4.01935       -4.38774
H          7.48900       -4.98711       -4.29508
H          8.04358       -3.31529       -4.47884
H          8.32582       -2.77659       -0.40811
H         10.05245       -2.33041       -0.53083
H         10.81364       -4.42995        0.32789
H          9.40700       -5.30394       -0.32089
H          8.81320       -2.93198        2.12164
H          7.10392       -5.92660        1.71620
H          6.85841       -4.61614        0.52682
H          5.08597       -4.06763        4.34987
H          9.59325       -6.23555        2.97520
H          9.12772       -4.89003        4.02979
H         11.79874       -5.25889        2.52229
H         11.53512       -5.19583        4.26266
H         11.33212       -2.81247        2.30200
H         12.59674       -3.09999        3.51381
H         12.20255        1.87265        6.39441
H         13.76291        3.05262        7.93846
H         14.96425        1.77600        9.70696
H         14.59805       -0.67650        9.93456
H         13.04863       -1.85540        8.37761
H         10.20984       -1.86672        8.38338
H          7.80605       -1.47475        8.92494
H          6.46432        0.10721        7.54675
H          7.52550        1.30298        5.63679
H          9.93067        0.90478        5.10034
