85

C          2.80593        1.72687        0.69339
C          3.90936        0.76241        0.25100
C          4.16218       -0.36577        1.25774
C          5.21905       -1.37479        0.79584
C          5.49174       -2.47823        1.82374
C          6.48835       -3.53329        1.32708
C          6.79663       -4.59267        2.39264
C          7.73991       -5.67030        1.85137
N          8.11824       -6.64538        2.89604
C          7.73219       -7.91496        3.04691
N          8.30017       -8.39004        4.17021
C          9.03115       -7.33609        4.69566
N          8.91812       -6.27079        3.91447
C          9.89101       -7.44650        5.91504
O         10.33372       -8.51932        6.26078
C         10.12077       -6.17563        6.80177
C         11.56302       -5.54649        6.75003
C         12.00305       -4.95320        5.36465
C         11.31679       -3.60535        4.93893
O         11.77007       -2.55920        5.30946
O         10.24256       -3.71651        4.13903
F         13.33197       -4.75637        5.40852
F         11.75135       -5.94801        4.42316
F         11.61637       -4.57244        7.68574
F         12.43914       -6.52983        7.08338
F          9.20480       -5.20849        6.49261
F          9.90186       -6.57027        8.08153
C          8.10126       -9.74142        4.74742
C          7.09847       -9.71146        5.91392
C          7.25709      -10.92318        6.84236
S          8.62351      -10.75085        8.02292
C          9.92876      -11.78178        7.32076
S          9.77487      -12.55435        5.84183
N         11.01408      -11.86323        8.11120
C         11.13560      -11.18656        9.41451
C         11.83659       -9.82372        9.33335
C         11.93389       -9.14685       10.70592
C         12.66760       -7.80431       10.65621
C         12.17239      -12.68117        7.70632
C         12.05215      -14.14021        8.16161
C         13.25272      -14.98406        7.71993
C         13.13009      -16.45015        8.14205
H          2.65941        2.53151       -0.03954
H          3.04756        2.19693        1.65822
H          1.84409        1.20567        0.81050
H          4.84689        1.32103        0.09021
H          3.64672        0.32481       -0.72702
H          3.21414       -0.89711        1.45435
H          4.46904        0.07136        2.22416
H          6.16122       -0.84532        0.57187
H          4.89411       -1.83161       -0.15548
H          4.54226       -2.97255        2.09282
H          5.87462       -2.02474        2.75391
H          7.42720       -3.04029        1.02358
H          6.08638       -4.01859        0.42086
H          5.86465       -5.06867        2.73937
H          7.26161       -4.11352        3.26847
H          8.67994       -5.23693        1.48182
H          7.28533       -6.24844        1.03571
H          7.07999       -8.46827        2.37928
H          9.95971       -4.65288        4.01429
H          9.08065      -10.11963        5.06825
H          7.75410      -10.38398        3.92917
H          6.07073       -9.68428        5.51808
H          7.23579       -8.78851        6.49835
H          7.42710      -11.85945        6.28568
H          6.35853      -11.03565        7.46283
H         11.69241      -11.86687       10.07636
H         10.13414      -11.08332        9.85748
H         11.29032       -9.17593        8.63155
H         12.84709       -9.95720        8.91282
H         12.44500       -9.82042       11.41413
H         10.91787       -8.99846       11.10911
H         13.70277       -7.92636       10.30519
H         12.70764       -7.33701       11.64888
H         12.16835       -7.09922        9.97598
H         13.06543      -12.20840        8.14110
H         12.25251      -12.62789        6.61221
H         11.12659      -14.56415        7.74223
H         11.95211      -14.17947        9.25927
H         14.17968      -14.55453        8.13593
H         13.35248      -14.92192        6.62357
H         13.05575      -16.54746        9.23513
H         14.00171      -17.03272        7.81595
H         12.23511      -16.91719        7.70613
