50

C          0.38808        0.21581       -2.86059
C          1.87036        0.03248       -2.52926
C          2.64908       -0.67804       -3.64314
C          4.14291       -0.82782       -3.32340
C          4.88683       -1.51793       -4.44737
O          6.32151       -1.54910       -4.08205
C          7.13815       -2.13838       -4.94206
O          6.82916       -2.67034       -5.99586
C          8.58983       -2.09416       -4.44908
P          9.41442       -3.62396       -5.00117
C          9.78659       -3.58313       -6.78279
C         10.17432       -4.94534       -7.40485
C          9.28186       -6.14604       -7.03852
C          7.78895       -5.95201       -7.38179
S          6.77014       -6.75971       -6.12154
O          6.92346       -8.18999       -6.18759
O          6.96596       -6.05636       -4.86079
Cl         4.87492       -6.27219       -6.78405
C         10.88613       -3.99001       -3.99970
C         10.60352       -4.49958       -2.57091
C          9.81896       -5.80901       -2.52441
F         10.36632       -6.71265       -3.45471
H         -0.14076        0.72858       -2.04639
H         -0.11010       -0.75149       -3.02136
H          0.25268        0.81507       -3.77273
H          1.97438       -0.53910       -1.59198
H          2.33119        1.01601       -2.33782
H          2.52909       -0.11602       -4.58543
H          2.20447       -1.67230       -3.82185
H          4.27397       -1.40037       -2.39141
H          4.58770        0.16580       -3.15400
H          4.80168       -0.98103       -5.40281
H          4.56337       -2.55722       -4.60149
H          8.65094       -2.01031       -3.35604
H          9.10324       -1.22326       -4.88424
H          8.45789       -4.64440       -4.78006
H         10.59027       -2.84539       -6.93031
H          8.87603       -3.16444       -7.23559
H         11.20833       -5.19785       -7.12812
H         10.18326       -4.79654       -8.49510
H          9.40159       -6.37815       -5.96790
H          9.65721       -7.03448       -7.56177
H          7.50687       -6.39902       -8.34258
H          7.45497       -4.90542       -7.36334
H         11.50635       -3.08128       -3.98390
H         11.44580       -4.75385       -4.56081
H         10.06925       -3.74724       -1.96935
H         11.58108       -4.64194       -2.08834
H          8.75499       -5.69108       -2.78352
H          9.88627       -6.26825       -1.52864
