94

C         13.09531        7.35217       -2.77350
C         12.80952        5.92185       -2.30912
C         13.17688        4.85866       -3.35099
C         12.92270        3.42426       -2.87613
C         13.25131        2.35878       -3.92777
C         13.04522        0.92693       -3.42311
C         13.27675       -0.14267       -4.49743
C         13.10820       -1.56733       -3.95279
C         13.19576       -2.62422       -5.03765
O         13.03271       -3.92626       -4.40684
C         12.78921       -4.96765       -5.28568
N         12.53424       -6.15924       -4.39870
C         11.24789       -6.02225       -3.60960
C         11.36674       -6.69423       -2.23315
C         10.03922       -6.76989       -1.56146
C          9.64987       -6.07442       -0.48574
F         10.43354       -5.19196        0.12573
F          8.47135       -6.18330        0.09001
F          9.16074       -7.64077       -2.12484
C         12.67441       -7.48074       -5.11677
C         14.15351       -7.86184       -5.13975
O         14.62222       -7.63065       -3.81388
C         16.05924       -7.55344       -3.68551
C         16.54531       -6.11985       -3.90208
O         17.95042       -6.19911       -4.00898
C         18.64439       -5.05766       -4.37267
C         18.09642       -3.77124       -4.40304
C         18.89954       -2.69645       -4.79550
C         20.24339       -2.86010       -5.16401
C         20.75794       -4.16676       -5.12103
C         19.98064       -5.25251       -4.72769
C         21.08771       -1.65356       -5.59990
C         21.20681       -0.58276       -4.46458
C         21.87550       -0.82523       -3.07749
C         23.38459       -1.12960       -3.17398
C         21.71280        0.50525       -2.30859
C         21.18902       -1.93579       -2.25857
C         22.46530       -2.07870       -6.14396
C         20.35468       -0.95276       -6.77481
H         12.81348        8.08778       -2.00799
H         12.53566        7.59525       -3.68917
H         14.16404        7.49480       -2.99320
H         11.74072        5.82305       -2.05370
H         13.36194        5.72025       -1.37558
H         14.24102        4.96892       -3.62542
H         12.60625        5.04501       -4.27812
H         11.86505        3.32144       -2.57504
H         13.51507        3.23297       -1.96385
H         14.29654        2.48127       -4.26184
H         12.62623        2.52560       -4.82262
H         12.01909        0.82284       -3.02876
H         13.71800        0.73999       -2.56810
H         14.28713       -0.02602       -4.92519
H         12.57074        0.02289       -5.32944
H         12.13017       -1.66068       -3.45300
H         13.87571       -1.77234       -3.18930
H         14.16941       -2.60290       -5.55874
H         12.39615       -2.48930       -5.78832
H         13.65466       -5.20968       -5.92989
H         11.89180       -4.81648       -5.91632
H         13.33132       -6.18182       -3.72331
H         10.44696       -6.46444       -4.21644
H         11.06515       -4.94843       -3.49227
H         12.06330       -6.12782       -1.59894
H         11.76808       -7.71789       -2.32542
H         12.23930       -7.39862       -6.12051
H         12.09852       -8.21612       -4.54246
H         14.71698       -7.26198       -5.87605
H         14.25078       -8.92333       -5.42330
H         16.54776       -8.23109       -4.40235
H         16.29253       -7.90123       -2.67149
H         16.22901       -5.47628       -3.05974
H         16.10884       -5.69806       -4.83085
H         17.06162       -3.58682       -4.11215
H         18.45272       -1.70125       -4.79777
H         21.79443       -4.35457       -5.39623
H         20.39531       -6.26037       -4.69827
H         20.18281       -0.22719       -4.25718
H         21.72395        0.28023       -4.91907
H         23.90160       -0.41957       -3.83586
H         23.58375       -2.14386       -3.54192
H         23.84747       -1.05276       -2.17928
H         22.21285        1.33414       -2.83139
H         22.15300        0.42953       -1.30383
H         20.65197        0.77310       -2.19183
H         21.32287       -2.92817       -2.70672
H         20.10787       -1.75704       -2.16206
H         21.61433       -1.96895       -1.24437
H         23.06186       -2.65403       -5.42814
H         23.04943       -1.18691       -6.40858
H         22.35565       -2.68408       -7.05541
H         19.38048       -0.54595       -6.47100
H         20.18579       -1.65840       -7.60040
H         20.95823       -0.11706       -7.15665
