66

C          2.00867       -1.73491       -1.10787
O          3.40502       -1.52738       -0.83833
C          3.77485       -0.17066       -0.77014
C          5.25112       -0.11601       -0.47834
N          5.88162       -1.30356       -0.35783
C          7.19982       -1.41680       -0.08379
C          8.00033       -0.29251        0.07456
C          7.38227        0.98048       -0.07073
C          6.00296        1.03761       -0.32768
C          8.14271        2.27433        0.05352
C          8.03798        3.11651       -1.23464
C          8.61663        4.51176       -1.03405
C          8.46430        5.50364       -2.24867
C          7.03597        5.77072       -2.88132
C          5.81107        6.26851       -2.01272
C          5.84730        7.63189       -1.21115
C          6.03882        9.02073       -1.94541
C          5.02549        9.52186       -3.05243
C          3.50392        9.67472       -2.67714
F          3.35495       10.38082       -1.54430
F          2.88437       10.31874       -3.67910
F          2.92178        8.46964       -2.52239
F          5.47077       10.75262       -3.40958
F          5.11055        8.70198       -4.13143
F          6.04631        9.94357       -0.95109
F          7.26476        9.01203       -2.53003
F          4.67254        7.68161       -0.52872
F          6.85600        7.55035       -0.30765
F          4.74899        6.29678       -2.85219
F          5.56549        5.29596       -1.07638
F          7.21868        6.63826       -3.89913
F          6.61312        4.57974       -3.41871
F          9.00652        6.69082       -1.89788
F          9.20022        4.97848       -3.27350
F          8.06877        5.10252        0.07375
F          9.96693        4.42014       -0.80286
C          9.45932       -0.49068        0.38435
C         10.35627       -0.47701       -0.86456
O         11.67117       -0.66397       -0.40495
C         12.63582       -0.81146       -1.45212
C         13.98659       -1.05217       -0.79158
O         14.92357       -1.26810       -1.82795
C         16.24248       -1.47652       -1.33563
H          1.85520       -2.81849       -1.11662
H          1.73370       -1.31434       -2.08805
H          1.38777       -1.27978       -0.32001
H          3.22507        0.36675        0.02855
H          3.57188        0.36137       -1.72127
H          5.27954       -2.12816       -0.47565
H          7.58554       -2.43111        0.00975
H          5.49785        2.00089       -0.41131
H          9.19392        2.09759        0.30359
H          7.70766        2.84859        0.88760
H          6.99153        3.21944       -1.54264
H          8.57559        2.63806       -2.06498
H          9.60037       -1.45625        0.88997
H          9.81864        0.27780        1.08219
H         10.25209        0.48051       -1.41798
H         10.05238       -1.28788       -1.55860
H         12.67222        0.09803       -2.07948
H         12.37488       -1.66845       -2.10011
H         13.92078       -1.93035       -0.11874
H         14.26567       -0.17661       -0.17254
H         16.88403       -1.65021       -2.20699
H         16.28977       -2.35649       -0.66871
H         16.61088       -0.59279       -0.78395
