88

C          0.64789        0.00587       -0.07073
C          2.16965        0.06302       -0.22131
C          2.78838       -1.28385       -0.60774
C          4.31311       -1.24594       -0.74620
C          4.92418       -2.59403       -1.13942
C          6.45343       -2.57890       -1.22275
C          7.05485       -3.92956       -1.62242
C          8.58629       -3.95125       -1.61097
C          9.17921       -5.30967       -1.99700
C         10.70670       -5.36520       -1.89881
C         11.29001       -6.73660       -2.25345
C         12.80701       -6.82482       -2.06253
C         13.37896       -8.21174       -2.37691
C         14.86756       -8.34072       -2.03734
C         15.41444       -9.75033       -2.28334
C         16.87645       -9.88727       -1.78840
C         17.42531      -11.25568       -1.95548
N         17.84967      -11.78797       -3.11859
N         18.26796      -13.01586       -2.88190
N         18.11213      -13.27144       -1.60222
N         17.58524      -12.18272       -0.97817
C         17.22619      -12.12389        0.44460
C         15.71392      -12.33827        0.68436
O         15.52320      -12.38266        2.06689
Si        14.43063      -11.37997        2.91722
C         14.74925      -11.80584        4.70515
C         14.84234       -9.58569        2.52015
C         12.68202      -11.78421        2.37090
C         18.55001      -14.53778       -0.98897
C         17.40120      -15.44610       -0.54991
O         16.52909      -15.58629       -1.64069
C         15.53532      -16.61683       -1.45122
C         14.67316      -16.68129       -2.69412
H          0.23168        0.98437        0.20572
H          0.35266       -0.71369        0.70752
H          0.16693       -0.30782       -1.00931
H          2.62144        0.41094        0.72309
H          2.43850        0.81632       -0.98093
H          2.34320       -1.62854       -1.55785
H          2.51072       -2.04069        0.14729
H          4.75612       -0.90975        0.20797
H          4.59435       -0.48462       -1.49489
H          4.50733       -2.91377       -2.11071
H          4.61060       -3.36123       -0.40936
H          6.86578       -2.27222       -0.24517
H          6.77572       -1.80637       -1.94266
H          6.69047       -4.20948       -2.62634
H          6.67931       -4.70968       -0.93658
H          8.94333       -3.67241       -0.60378
H          8.97169       -3.17458       -2.29436
H          8.86687       -5.56762       -3.02389
H          8.74825       -6.09007       -1.34500
H         11.01166       -5.09646       -0.87199
H         11.14775       -4.59653       -2.55670
H         11.03395       -6.98652       -3.29753
H         10.80405       -7.50751       -1.62936
H         13.05301       -6.56126       -1.01859
H         13.30622       -6.06866       -2.69203
H         13.21909       -8.44708       -3.44257
H         12.81341       -8.97137       -1.80844
H         15.01792       -8.07114       -0.97689
H         15.45192       -7.61167       -2.62321
H         15.37452      -10.00098       -3.35398
H         14.78083      -10.48877       -1.76512
H         16.94656       -9.58017       -0.73457
H         17.52144       -9.21116       -2.36951
H         17.53910      -11.14025        0.81762
H         17.80143      -12.88648        0.98227
H         15.39932      -13.28524        0.20901
H         15.15276      -11.52420        0.18991
H         15.78716      -11.58680        4.99105
H         14.56038      -12.87111        4.89642
H         14.08926      -11.22554        5.36552
H         15.87195       -9.32991        2.80871
H         14.17217       -8.91564        3.07844
H         14.70819       -9.34550        1.45475
H         12.43817      -12.83881        2.56010
H         12.52110      -11.58410        1.30140
H         11.95732      -11.17087        2.92617
H         19.22852      -14.30810       -0.15576
H         19.12254      -15.01092       -1.79561
H         16.88333      -15.04896        0.34600
H         17.86266      -16.40883       -0.25214
H         14.93188      -16.38161       -0.55453
H         16.04881      -17.57856       -1.27016
H         14.15747      -15.72770       -2.86836
H         13.91310      -17.46475       -2.57716
H         15.27864      -16.91857       -3.57827
