53

C          1.82272        3.47087       -0.60363
C          2.66354        2.25726       -0.21701
S          3.89933        1.97663       -1.54690
C          4.69189        0.57411       -0.92545
N          4.47007       -0.12800        0.15833
N          5.41278       -1.15806        0.14383
C          6.12488       -1.01243       -0.93080
O          5.73782        0.06980       -1.67670
C          7.30300       -1.83066       -1.37358
C          7.47411       -1.94086       -2.90336
C          6.55682       -3.00480       -3.51200
C          6.73881       -4.35172       -2.82374
N          6.42269       -4.28396       -1.33817
C          7.31655       -3.20683       -0.68913
C          6.74799       -5.54228       -0.62023
C          7.22295       -6.65310       -1.16686
C          4.92617       -3.99579       -1.08872
C          3.96597       -5.03683       -1.63962
C          2.51592       -4.64412       -1.27397
C          1.51212       -5.61557       -1.85225
C          1.01366       -5.43694       -3.15069
C          0.11462       -6.35212       -3.70214
C         -0.29694       -7.46160       -2.95900
C          0.19115       -7.64824       -1.66335
C          1.09007       -6.73062       -1.11492
H          1.08470        3.66205        0.18673
H          1.27612        3.30811       -1.54215
H          2.43750        4.37457       -0.71086
H          2.05975        1.34654       -0.12013
H          3.21255        2.41606        0.71934
H          8.20177       -1.32253       -0.97868
H          8.52259       -2.20486       -3.11140
H          7.29917       -0.96365       -3.36929
H          6.80061       -3.15055       -4.57377
H          5.50325       -2.68791       -3.48821
H          7.78563       -4.67777       -2.89572
H          6.10143       -5.12901       -3.25809
H          8.32864       -3.62888       -0.72912
H          6.99855       -3.12565        0.35717
H          6.54150       -5.44480        0.44611
H          7.42521       -6.78397       -2.22768
H          7.42303       -7.50470       -0.51826
H          4.72194       -3.01126       -1.51813
H          4.83376       -3.88602       -0.00027
H          4.18403       -6.03735       -1.23932
H          4.03745       -5.10445       -2.73584
H          2.30856       -3.62764       -1.64558
H          2.41345       -4.60592       -0.17818
H          1.32017       -4.56325       -3.73195
H         -0.27195       -6.19494       -4.70970
H         -1.00409       -8.17356       -3.38555
H         -0.13458       -8.50636       -1.07445
H          1.45764       -6.87571       -0.09618
