104

C          5.54069       -0.97096       -4.02634
C          6.35134        0.05544       -3.23127
C          6.03627        0.04444       -1.73150
C          6.84901        1.06075       -0.92307
C          6.50744        1.06437        0.57052
C          7.33486        2.06244        1.38739
C          6.95296        2.08344        2.87056
C          7.79671        3.08352        3.67161
N          7.44134        3.13487        5.09971
C          6.54108        3.99736        5.60580
S          6.14808        4.08058        7.24081
S          5.80820        5.07634        4.36723
C          4.70155        6.08634        5.38011
C          3.39559        5.36183        5.75562
C          2.80598        5.93838        7.04268
N          1.94956        4.94793        7.80598
C          2.69183        3.73821        8.34710
C          1.79180        2.55189        7.95668
O          0.50534        3.15145        7.71100
C          0.72201        4.35823        7.04723
C         -0.46607        5.28301        7.14132
C         -1.68430        4.82742        6.33213
C         -2.63225        6.03163        6.15495
O         -2.18037        7.17280        6.08249
N         -3.95540        5.70270        6.06987
C         -5.08368        6.54061        5.87984
C         -6.33641        5.90804        5.81401
C         -7.49520        6.66041        5.63833
C         -7.41782        8.05186        5.52840
C         -6.17041        8.67620        5.59478
C         -4.99809        7.93742        5.76888
C          1.61876        1.57719        9.13473
O          1.31322        1.95735       10.24484
O          1.86425        0.32127        8.75322
C          1.74510       -0.70995        9.79770
C          2.42682       -1.95981        9.28979
C          8.13143        2.16818        5.97273
C          9.42906        2.72006        6.57432
C         10.06176        1.73025        7.55741
C         11.34986        2.25572        8.20011
C         11.94432        1.29901        9.23878
C         13.22700        1.82252        9.89248
C         13.79793        0.88519       10.96242
C         15.08010        1.41281       11.61059
H          5.78661       -0.93737       -5.09653
H          4.45996       -0.78837       -3.92905
H          5.73526       -1.99456       -3.67333
H          6.16467        1.06576       -3.63383
H          7.42868       -0.13158       -3.37724
H          6.21661       -0.96843       -1.32944
H          4.95847        0.23740       -1.58538
H          6.68603        2.07163       -1.33600
H          7.92540        0.85234       -1.05149
H          6.65255        0.04989        0.98115
H          5.43429        1.29122        0.69752
H          7.21050        3.07456        0.96419
H          8.40688        1.82059        1.28500
H          7.07531        1.07637        3.30197
H          5.88774        2.34310        2.97854
H          7.71137        4.09498        3.24682
H          8.86292        2.81818        3.61610
H          4.51757        6.98543        4.77588
H          5.26515        6.36827        6.28104
H          3.63915        4.30207        5.90998
H          2.67870        5.42159        4.92525
H          2.18053        6.82351        6.86439
H          3.61042        6.21838        7.73666
H          1.55117        5.44916        8.61049
H          2.74735        3.83896        9.43666
H          3.70149        3.69959        7.91229
H          2.15480        2.03074        7.05679
H          1.06968        4.20534        6.00964
H         -0.19336        6.28197        6.76197
H         -0.74032        5.39521        8.20365
H         -2.18166        3.97003        6.80619
H         -1.37335        4.50652        5.32327
H         -4.17659        4.71479        6.15569
H         -6.40088        4.82015        5.89975
H         -8.46078        6.15665        5.58738
H         -8.32299        8.64354        5.39322
H         -6.10074        9.76104        5.51031
H         -4.03051        8.42784        5.81944
H          0.67191       -0.86017        9.98173
H          2.19918       -0.31577       10.71652
H          1.96902       -2.31731        8.35851
H          2.32961       -2.75427       10.04188
H          3.49670       -1.78739        9.11483
H          8.33380        1.27502        5.36271
H          7.43427        1.88729        6.77316
H          9.20295        3.66470        7.09259
H         10.14181        2.96099        5.76845
H         10.27087        0.77509        7.04437
H          9.33007        1.49589        8.35036
H         11.14501        3.22946        8.67777
H         12.09755        2.45595        7.41312
H         12.14718        0.32261        8.76475
H         11.19082        1.10349       10.02213
H         13.02914        2.81073       10.34429
H         13.99056        1.99625        9.11372
H         13.99049       -0.10435       10.51433
H         13.03316        0.71989       11.74052
H         15.88283        1.53642       10.86860
H         15.44942        0.72930       12.38702
H         14.91462        2.39275       12.08285
