79

C          9.30974       -7.40138        2.40992
C          9.05501       -5.95580        1.97604
C          9.74000       -4.91907        2.87410
C          9.45970       -3.47221        2.45571
C         10.13158       -2.42279        3.34750
C          9.75407       -0.98733        2.96949
C         10.41075        0.08663        3.84292
C          9.87774        1.49212        3.54543
C         10.51380        2.59409        4.40360
C          9.79831        3.92396        4.19891
O         10.25107        4.97821        5.08497
C         11.40449        5.63469        4.65188
N         11.55146        6.82755        5.49448
C         12.58148        7.14750        6.37080
N         12.32018        8.28759        6.97576
N         11.11861        8.67568        6.48409
C         10.62383        7.82142        5.59636
C          9.29907        7.92774        4.93008
C          8.13469        7.45378        5.83558
C          7.75868        8.41775        6.96753
S          7.05067        9.97661        6.34284
C          8.07391       11.27344        7.02900
S          9.55404       11.01814        7.80682
N          7.54603       12.50177        6.88338
C          6.20887       12.75944        6.31198
C          6.23375       13.02123        4.80425
C          8.28633       13.70815        7.31229
C          7.96869       14.11343        8.75184
C         13.80603        6.34346        6.64813
C         13.78571        5.61134        8.00684
C         12.65886        4.56162        8.10918
F         12.65554        3.69602        7.06444
F         12.79418        3.83603        9.24290
F         11.43579        5.16019        8.14767
O         15.04971        4.99791        8.12033
H          8.81472       -8.11667        1.73923
H          8.93332       -7.58536        3.42726
H         10.38477       -7.63566        2.40991
H          7.96908       -5.76113        1.96323
H          9.39795       -5.81637        0.93666
H         10.82969       -5.09921        2.87412
H          9.41091       -5.06670        3.91803
H          8.36845       -3.30160        2.45839
H          9.78349       -3.32355        1.41064
H         11.22796       -2.54477        3.30154
H          9.85103       -2.60455        4.40015
H          8.65659       -0.87992        3.03284
H         10.01236       -0.80516        1.91147
H         11.50526        0.06336        3.70291
H         10.23549       -0.14751        4.90718
H          8.78508        1.49641        3.70655
H         10.02539        1.72382        2.47641
H         11.58594        2.68323        4.16055
H         10.45197        2.32765        5.47062
H          8.72950        3.81958        4.43385
H          9.87967        4.27183        3.15170
H         11.32273        5.95602        3.59515
H         12.32314        5.03771        4.76738
H         10.60991        9.53475        6.87623
H          9.31176        7.33546        4.00712
H          9.13526        8.97867        4.64457
H          8.38766        6.47660        6.27169
H          7.26241        7.28756        5.18685
H          8.60253        8.69420        7.61917
H          6.98540        7.96243        7.59979
H          5.80640       13.63149        6.84565
H          5.55565       11.91073        6.55577
H          6.86978       13.88126        4.55557
H          5.21712       13.24375        4.45465
H          6.60120       12.14827        4.24987
H          8.01279       14.50843        6.60994
H          9.35641       13.49916        7.19524
H          6.89855       14.31770        8.89230
H          8.51918       15.02961        9.00264
H          8.27145       13.32846        9.45570
H         14.66170        7.03041        6.68259
H         14.01021        5.61531        5.85340
H         13.59506        6.34226        8.81399
H         15.14436        4.61901        9.01007
