80

C          3.24183        2.65549        1.74757
C          2.91426        1.34900        2.44062
O          3.04264        0.27587        1.48888
C          2.73334       -0.99218        2.03240
C          2.85629       -2.00984        0.89684
C          2.62794       -3.45967        1.33826
C          3.93027       -4.07908        1.85854
C          3.80362       -5.54184        2.27483
O          3.47648       -6.30375        1.12972
C          3.26818       -7.70057        1.42212
C          2.69579       -8.39017        0.19585
C          2.43769       -9.88161        0.44348
C          1.69713      -10.56779       -0.70920
C          1.43774      -12.05589       -0.45574
C          0.56965      -12.72297       -1.52685
C          0.32726      -14.21334       -1.27000
C         -0.60794      -14.87128       -2.28885
C         -0.83665      -16.36414       -2.03350
C         -1.79774      -17.01864       -3.03012
C         -2.02270      -18.51256       -2.77643
C         -2.99091      -19.15522       -3.77203
N          4.95611       -3.97646        0.80747
C          5.05746       -2.86132        0.06086
N          6.03343       -2.73911       -0.85750
C          7.26458       -3.53615       -0.89255
C          8.08301       -3.10619       -2.10583
O          8.21028       -1.69569       -2.04943
C          9.01039       -1.15526       -3.12085
C          9.09773        0.34778       -2.95156
N          4.18032       -1.86646        0.25866
H          3.14248        3.48750        2.45703
H          2.55715        2.83748        0.90907
H          4.27203        2.65424        1.36751
H          1.88156        1.35737        2.83496
H          3.59839        1.16472        3.28997
H          1.69706       -1.02094        2.42193
H          3.41962       -1.24387        2.86711
H          2.10936       -1.73828        0.13337
H          2.26303       -4.06722        0.49931
H          1.85771       -3.48107        2.12195
H          4.28754       -3.51535        2.73721
H          3.02210       -5.62302        3.05411
H          4.75665       -5.88625        2.72540
H          2.56727       -7.78833        2.27349
H          4.22794       -8.15742        1.73079
H          3.38565       -8.26132       -0.65386
H          1.75362       -7.88973       -0.08038
H          1.84477      -10.00124        1.36692
H          3.39533      -10.39796        0.62724
H          2.27063      -10.44619       -1.64444
H          0.73432      -10.05295       -0.87325
H          0.94787      -12.17465        0.52684
H          2.40210      -12.58760       -0.37868
H          1.04000      -12.59354       -2.51741
H         -0.40128      -12.19979       -1.58174
H         -0.09386      -14.34257       -0.25729
H          1.29522      -14.74443       -1.26439
H         -0.19845      -14.73355       -3.30509
H         -1.57982      -14.34706       -2.28068
H         -1.22605      -16.50229       -1.00934
H          0.13322      -16.89129       -2.06146
H         -1.41289      -16.87826       -4.05577
H         -2.76934      -16.49450       -2.99783
H         -2.40250      -18.65176       -1.75010
H         -1.05260      -19.03629       -2.81358
H         -3.97950      -18.67385       -3.73277
H         -3.13328      -20.22459       -3.56383
H         -2.62001      -19.06336       -4.80379
H          5.28981       -4.85343        0.41457
H          6.10995       -1.85406       -1.35855
H          7.03298       -4.60721       -0.99057
H          7.84267       -3.38240        0.03282
H          7.58039       -3.41604       -3.04325
H          9.06848       -3.60524       -2.06711
H          8.55015       -1.42403       -4.08944
H         10.01374       -1.61678       -3.08396
H          8.10389        0.81207       -3.00480
H          9.71505        0.77607       -3.75230
H          9.55735        0.60814       -1.98924
H          4.39938       -0.93284       -0.07914
