92

C          5.49093        0.84831       -3.81391
C          5.44416        0.66466       -2.29592
C          6.06654       -0.65726       -1.82830
C          6.02521       -0.82364       -0.30352
C          6.63541       -2.13473        0.14985
O          6.59302       -2.17610        1.61121
C          6.91688       -3.35866        2.18856
S          8.84717       -3.58012        2.27492
C          9.36904       -2.07593        3.14598
C          8.63179       -1.74562        4.44916
O          7.84281       -2.48782        5.00404
O          9.01052       -0.53605        4.84901
C          8.43531       -0.02739        6.11309
C          9.24940       -0.47173        7.31690
C          8.73775        0.18421        8.60789
C          9.48283       -0.29713        9.85979
C          9.00317        0.38714       11.14206
C          9.01408       -4.96309        3.46869
C         10.40805       -5.55812        3.34982
O         11.32564       -4.50005        3.57302
C         12.71286       -4.86923        3.49228
C         13.21938       -4.92598        2.04934
O         14.62828       -5.00992        2.15410
C         15.37099       -5.05321        0.98890
C         14.82701       -5.07986       -0.29946
C         15.68276       -5.11994       -1.40294
C         17.07910       -5.12074       -1.26947
C         17.59030       -5.10774        0.03892
C         16.75809       -5.07298        1.15510
C         17.98052       -5.14947       -2.51268
C         17.67113       -3.96458       -3.48640
C         17.84282       -2.45542       -3.13282
C         19.30929       -2.05300       -2.87455
C         17.36008       -1.68523       -4.38223
C         16.98332       -2.00933       -1.93388
C         19.47514       -5.21644       -2.14583
C         17.66210       -6.44903       -3.29905
H          5.04005        1.80387       -4.11205
H          4.94273        0.04783       -4.33187
H          6.52514        0.83871       -4.18820
H          4.39909        0.71407       -1.94793
H          5.96697        1.50265       -1.80523
H          7.11170       -0.71221       -2.17982
H          5.53772       -1.49840       -2.30898
H          4.98530       -0.77357        0.05561
H          6.56709        0.00606        0.17846
H          7.68722       -2.22369       -0.17678
H          6.07677       -3.00469       -0.23593
H          6.61645       -4.25902        1.62470
H          6.59520       -3.37455        3.23604
H          9.25039       -1.26346        2.41623
H         10.44202       -2.22247        3.33260
H          7.39280       -0.36701        6.17011
H          8.46274        1.06044        5.97724
H         10.30643       -0.20682        7.15613
H          9.19754       -1.56772        7.41117
H          7.65949       -0.02099        8.72634
H          8.83267        1.28076        8.52526
H         10.56363       -0.12181        9.72895
H          9.36101       -1.38908        9.95387
H          9.15699        1.47525       11.09716
H          9.54566        0.01195       12.01989
H          7.93110        0.21087       11.31437
H          8.24237       -5.69092        3.17838
H          8.78638       -4.56595        4.46486
H         10.54782       -6.02278        2.35674
H         10.51498       -6.35252        4.11304
H         12.88557       -5.82686        4.01103
H         13.26141       -4.08625        4.03173
H         12.90967       -4.00840        1.51325
H         12.81138       -5.79803        1.50446
H         13.74962       -5.07002       -0.46252
H         15.23094       -5.13389       -2.39574
H         18.66653       -5.11473        0.20459
H         17.17192       -5.05952        2.16374
H         16.62586       -4.08908       -3.81656
H         18.27907       -4.14880       -4.38917
H         19.98149       -2.44444       -3.65190
H         19.67382       -2.40592       -1.90175
H         19.40346       -0.95706       -2.87521
H         17.96408       -1.93809       -5.26642
H         17.43612       -0.59953       -4.22417
H         16.31047       -1.91951       -4.61573
H         17.30598       -2.47436       -0.99386
H         15.92265       -2.26026       -2.08130
H         17.05566       -0.91821       -1.80945
H         19.80276       -4.39497       -1.49912
H         20.08323       -5.17483       -3.05979
H         19.71242       -6.16148       -1.63642
H         16.62359       -6.46892       -3.65700
H         17.81685       -7.33151       -2.66276
H         18.31975       -6.53819       -4.17585
