91

N          2.11100        1.73838       -2.15846
C          2.24815        0.97937       -0.84880
C          2.85723       -0.40998       -1.17467
C          2.13418       -1.48062       -2.06845
C          0.87388       -1.08627       -2.84894
N          1.16710       -0.08528       -3.93039
C         -0.09037        0.39504       -4.58156
C          0.14309        1.52294       -5.58899
O         -1.09416        2.18602       -5.70721
C         -1.11465        3.14121       -6.77456
C         -2.46644        3.84128       -6.75115
O         -2.46115        4.69285       -7.88570
C         -3.56260        5.49456       -8.10801
C         -3.50462        6.29059       -9.25936
C         -4.55889        7.13953       -9.56733
C         -5.70119        7.24101       -8.74880
C         -5.73784        6.42198       -7.61628
C         -4.68790        5.55411       -7.28485
C         -6.84865        8.18917       -9.13424
C         -6.32968        9.63270       -9.43052
C         -5.76389       10.59449       -8.33934
C         -6.88686       11.26044       -7.51591
C         -4.76257        9.92317       -7.38006
C         -5.02399       11.71239       -9.10674
C         -7.45398        7.66131      -10.46235
C         -7.98012        8.18764       -8.09074
C          2.18063       -0.62458       -4.90273
C          3.45877       -1.09401       -4.20317
C          3.13731       -2.08283       -3.07322
C          4.44689       -1.67292       -5.24268
C          5.79390       -1.99965       -4.63713
C          6.70688       -0.97567       -4.34004
C          7.93420       -1.26348       -3.73978
C          8.26783       -2.58463       -3.42749
C          7.37085       -3.61305       -3.72550
C          6.14330       -3.32108       -4.32617
N          3.09573        1.78200        0.02689
N          1.00443        0.85512       -0.13398
H          3.04247        2.04735       -2.45865
H          1.60107        2.60414       -1.95730
H          3.06268       -0.88092       -0.20493
H          3.84453       -0.20681       -1.61890
H          1.79509       -2.28229       -1.39592
H          0.08618       -0.64725       -2.22436
H          0.44391       -1.97974       -3.32652
H          1.58034        0.76270       -3.35351
H         -0.73623        0.78503       -3.78238
H         -0.59968       -0.46098       -5.04643
H          0.47485        1.12958       -6.56866
H          0.93349        2.21403       -5.22242
H         -0.97043        2.63483       -7.74610
H         -0.30324        3.88105       -6.64723
H         -2.58533        4.41594       -5.81525
H         -3.28164        3.09761       -6.80898
H         -2.62515        6.22942       -9.90099
H         -4.47931        7.74592      -10.47043
H         -6.59867        6.45156       -6.94947
H         -4.76913        4.94189       -6.38720
H         -7.15774       10.16868       -9.92564
H         -5.55373        9.53489      -10.20636
H         -7.40650       10.55365       -6.85776
H         -7.63864       11.72360       -8.17213
H         -6.46953       12.05360       -6.87800
H         -5.23411        9.15085       -6.75822
H         -4.33410       10.67817       -6.70364
H         -3.93256        9.44864       -7.92179
H         -5.69304       12.22139       -9.81686
H         -4.17468       11.30700       -9.67654
H         -4.63382       12.47188       -8.41331
H         -6.72406        7.69117      -11.28299
H         -8.31997        8.27031      -10.76061
H         -7.78785        6.62056      -10.34724
H         -7.63300        8.44346       -7.08162
H         -8.46922        7.20410       -8.03918
H         -8.74871        8.91985       -8.37299
H          2.40443        0.17044       -5.62585
H          1.69752       -1.45326       -5.44690
H          3.94510       -0.20394       -3.76505
H          4.06346       -2.37026       -2.55719
H          2.72213       -3.00899       -3.50630
H          4.57381       -0.94295       -6.05890
H          4.01028       -2.57852       -5.69363
H          6.46521        0.05856       -4.60002
H          8.63738       -0.45731       -3.52718
H          9.22844       -2.81221       -2.96485
H          7.62944       -4.64748       -3.49662
H          5.45110       -4.13183       -4.56432
H          4.05689        1.83804       -0.31134
H          3.11618        1.37565        0.96331
H          0.26719        0.36115       -0.62602
H          0.66527        1.76021        0.19158
