44

O          4.25342        2.19925       -6.64838
C          3.42765        1.26665       -5.90673
C          3.56848        1.52177       -4.42208
O          4.89665        1.18088       -4.02531
C          5.20540        1.49656       -2.67523
C          6.71548        1.34199       -2.51855
N          7.36459        2.17918       -3.53551
C          8.45371        1.82223       -4.23197
N          9.41684        1.06668       -3.68594
N          8.59315        2.26219       -5.50689
N          7.45158        2.91986       -6.01438
O          7.98014        4.12680       -6.58090
O          6.95744        2.13205       -7.08142
C          9.80964        2.09424       -6.34371
C         10.28853        0.65715       -6.45188
C          9.37309       -0.34167       -6.82404
C          9.76797       -1.67385       -6.92293
C         11.09360       -2.02030       -6.64710
C         12.00953       -1.03186       -6.28948
C         11.63761        0.31992       -6.18681
C         12.68520        1.34885       -5.82804
H          3.85227        2.33162       -7.52146
H          3.72736        0.23249       -6.14183
H          2.37202        1.40155       -6.18560
H          2.82693        0.90299       -3.88311
H          3.36240        2.58499       -4.19649
H          4.68954        0.82528       -1.96535
H          4.90050        2.53537       -2.43954
H          6.99635        0.28833       -2.67232
H          7.01237        1.64383       -1.50281
H          6.72598        2.71921       -4.12527
H          9.34536        0.78484       -2.71706
H         10.08322        0.58560       -4.29128
H          7.21897        4.73350       -6.54096
H          5.97869        2.08964       -6.88052
H         10.58904        2.75720       -5.94774
H          9.52805        2.48459       -7.32998
H          8.34057       -0.05808       -7.03635
H          9.04755       -2.43696       -7.21772
H         11.41684       -3.05925       -6.71726
H         13.04678       -1.30599       -6.08879
H         13.64117        0.85963       -5.60789
H         12.41362        1.94602       -4.94372
H         12.86152        2.05621       -6.65189
