55

O          0.70161       -0.57409        0.21073
C          1.98758       -1.03261        0.62111
C          2.61014       -1.71602       -0.58817
O          3.90740       -2.16845       -0.20235
C          4.61206       -2.81147       -1.24580
C          5.98166       -3.18867       -0.68444
C          6.92315       -3.84180       -1.70933
C          6.49750       -5.27091       -2.08459
N          6.75370       -6.19684       -0.97016
C          7.70877       -5.97333       -0.07829
N          7.87938       -6.84650        0.96980
C          7.11355       -7.98081        1.16481
N          6.12779       -8.41950        0.44236
N          5.69453       -9.60194        1.06157
C          6.46181       -9.77109        2.10455
O          7.41248       -8.74813        2.23661
S          6.51065      -11.00584        3.30671
C          5.17527      -12.09877        2.67759
C          5.12202      -13.33709        3.56709
N          8.50851       -4.90523       -0.16330
C          8.40020       -3.90715       -1.25522
C          9.03890       -2.59624       -0.78744
C          9.12049       -1.55678       -1.92442
C          9.91125       -0.29414       -1.51279
N         11.34907       -0.59141       -1.58009
O          9.72211       -2.12847       -3.07681
H          0.27937       -0.12952        0.96049
H          1.91947       -1.75511        1.45431
H          2.63815       -0.19903        0.94159
H          2.67899       -1.00184       -1.42991
H          1.97790       -2.56466       -0.91043
H          4.72721       -2.13436       -2.11757
H          4.04988       -3.70139       -1.59719
H          5.83194       -3.84221        0.18990
H          6.43117       -2.26242       -0.30048
H          6.91363       -3.25659       -2.64153
H          7.04132       -5.61950       -2.97555
H          5.42490       -5.32507       -2.30653
H          6.18067       -7.04793       -0.81881
H          8.62025       -6.67427        1.64256
H          5.41475      -12.34562        1.63617
H          4.23805      -11.52968        2.70051
H          6.06864      -13.89317        3.54672
H          4.33102      -14.00429        3.20077
H          4.88927      -13.08139        4.60937
H          9.22595       -4.76445        0.54071
H          8.99795       -4.26568       -2.10862
H         10.06711       -2.82570       -0.45359
H          8.49637       -2.17561        0.07363
H          8.09883       -1.24741       -2.20207
H          9.57372        0.07036       -0.52717
H          9.68882        0.49046       -2.24794
H         11.88413        0.20898       -1.90924
H         11.73671       -0.86106       -0.67750
H         10.67687       -1.90320       -2.96782
