65

C         13.28096        2.45447       -4.91307
C         12.60511        1.09113       -5.07254
C         11.51755        0.83313       -4.02330
C         10.82172       -0.52132       -4.19652
C          9.72601       -0.75052       -3.16952
O          9.08971       -2.00816       -3.44868
C          8.08107       -2.34496       -2.51104
C          7.43419       -3.65751       -2.94883
C          8.45233       -4.76193       -3.26458
O          7.85606       -5.97049       -3.73052
C          7.04257       -6.56648       -2.74812
N          7.76502       -6.69036       -1.47842
C          8.95858       -6.08089       -1.29940
N          9.73668       -6.48137       -0.27689
N          9.33599       -5.09157       -2.11742
C         10.66291       -4.46658       -2.02749
C         11.81470       -5.32656       -2.58699
C         11.97969       -5.22639       -4.11515
N         13.30512       -5.73414       -4.45485
C         13.78509       -5.37631       -5.79487
C         15.14224       -6.01059       -6.04519
O         14.96099       -7.43080       -5.96224
O         12.98670       -4.85846       -1.94868
C          6.66407       -8.00650       -3.17448
O          6.82438       -8.94317       -2.41077
O          6.14047       -8.02848       -4.38651
C          5.73985       -9.34993       -4.91811
C          6.91158      -10.04053       -5.58729
H         14.04790        2.61353       -5.68299
H         13.77096        2.54746       -3.93255
H         12.55187        3.27365       -4.99805
H         13.36349        0.29177       -5.01405
H         12.16025        1.01430       -6.07906
H         10.76597        1.63974       -4.07615
H         11.96147        0.89726       -3.01457
H         11.56328       -1.33513       -4.12016
H         10.37904       -0.59100       -5.20326
H          8.97139        0.05741       -3.20855
H         10.14192       -0.76686       -2.14240
H          7.30802       -1.55627       -2.45933
H          8.51207       -2.43947       -1.49275
H          6.84950       -3.50039       -3.86693
H          6.74054       -3.97331       -2.15513
H          9.10754       -4.43561       -4.07987
H          6.11129       -5.99109       -2.59405
H          7.65110       -7.63557       -1.09222
H          9.40843       -7.18342        0.37352
H         10.62815       -6.04186       -0.08754
H         10.88580       -4.21916       -0.97866
H         10.60165       -3.51111       -2.56379
H         11.63033       -6.39270       -2.32674
H         11.94026       -4.16394       -4.40891
H         11.14811       -5.74847       -4.63238
H         13.33760       -6.75448       -4.37685
H         13.87904       -4.28101       -5.86019
H         13.08533       -5.70141       -6.59103
H         15.86372       -5.66086       -5.28536
H         15.50694       -5.71144       -7.04336
H         15.82550       -7.86270       -6.03125
H         13.69475       -5.04058       -2.61437
H          4.94451       -9.09868       -5.62839
H          5.32725       -9.93632       -4.08771
H          7.33967       -9.41546       -6.38130
H          6.55866      -10.97551       -6.04408
H          7.69662      -10.29610       -4.86444
