43

C          0.77087       -0.05136        0.46157
C          2.29427       -0.08821        0.31313
C          2.96066        1.20438        0.79932
C          4.49140        1.14351        0.85959
N          5.08305        1.07002       -0.50054
C          5.87485        2.03198       -0.81789
C          5.99820        3.02692        0.28290
C          5.19226        2.39895        1.47181
C          6.02524        2.05070        2.71898
C          5.17386        1.65658        3.92144
O          4.47478        0.45005        3.62124
C          3.70622       -0.08456        4.70472
C          2.34709        0.60039        4.86207
O          1.64391       -0.11459        5.85355
C          0.37171        0.44938        6.14996
N          7.41828        3.34330        0.58381
O          7.99630        3.55738       -0.72573
O          7.31359        4.62472        1.21534
H          0.31747       -0.98538        0.10704
H          0.32844        0.77404       -0.11374
H          0.48163        0.08059        1.51399
H          2.54437       -0.28008       -0.74615
H          2.70140       -0.93717        0.88688
H          2.63978        1.41039        1.83103
H          2.64436        2.06743        0.18882
H          4.78502        0.22470        1.38803
H          4.84167        0.31447       -1.14698
H          6.35779        2.09429       -1.79292
H          5.52427        3.96245       -0.07923
H          4.41664        3.12012        1.76349
H          6.61442        2.92806        3.01487
H          6.74123        1.24586        2.49113
H          4.47016        2.47502        4.16753
H          5.82656        1.50603        4.80062
H          4.27546       -0.02495        5.64848
H          3.54825       -1.14639        4.47145
H          1.80417        0.57744        3.89233
H          2.46184        1.66522        5.15199
H         -0.08514       -0.18349        6.91880
H         -0.28072        0.46324        5.25755
H          0.46846        1.47979        6.53698
H          8.94631        3.40350       -0.57315
H          8.09587        4.65563        1.79651
