53

C          1.36629        1.27968       -0.92982
C          2.81490        0.84642       -0.69424
C          3.00789        0.04482        0.59872
C          4.45788       -0.39417        0.82144
C          4.67312       -1.20292        2.10649
C          6.13383       -1.63576        2.26913
C          6.38751       -2.46682        3.52681
N          7.80096       -2.90138        3.53388
C          8.62422       -3.03200        4.57952
N          8.18639       -3.33367        5.81376
C          7.03232       -4.18614        6.13707
C          6.86397       -4.27086        7.65308
O          5.79273       -5.16796        7.84620
C          5.19376       -5.15093        9.12835
C          3.69654       -5.45348        8.98497
C          2.74715       -4.27904        8.54099
C          2.92138       -3.54428        7.15992
C          2.73039       -4.38406        5.86154
F          2.69676       -3.50965        4.80979
F          3.79266       -5.21548        5.66711
F          1.96715       -2.57592        7.13732
F          4.14217       -2.91916        7.12430
F          1.47459       -4.76711        8.54566
F          2.84825       -3.30871        9.49472
F          3.49654       -6.50640        8.14025
F          3.24383       -5.81802       10.22430
N          9.95003       -2.84302        4.39409
H          1.26740        1.85206       -1.86184
H          0.99931        1.91469       -0.11009
H          0.69540        0.41093       -1.00173
H          3.46689        1.73608       -0.66868
H          3.16302        0.24224       -1.54917
H          2.35456       -0.84498        0.57815
H          2.66989        0.64947        1.45836
H          5.10973        0.49687        0.84018
H          4.79185       -0.99466       -0.04306
H          4.02282       -2.09395        2.09954
H          4.36402       -0.60360        2.97952
H          6.78625       -0.74665        2.28653
H          6.43027       -2.23067        1.38607
H          5.72416       -3.34562        3.54976
H          6.20330       -1.87329        4.43355
H          8.24319       -2.93523        2.61842
H          8.86196       -3.18867        6.56008
H          7.17937       -5.19620        5.72473
H          6.11165       -3.77521        5.71143
H          6.63414       -3.27300        8.07088
H          7.79296       -4.64339        8.13364
H          5.31196       -4.17775        9.63293
H          5.61292       -5.93885        9.77745
H          1.79825       -4.96841        5.88207
H         10.29608       -2.31103        3.60472
H         10.63264       -3.27601        5.00443
