69

C          1.51085       -0.16037        0.09749
C          2.99671       -0.50623       -0.01716
C          3.42949       -0.82518       -1.45385
C          4.92258       -1.15852       -1.56960
C          5.33219       -1.46747       -2.99683
O          6.75816       -1.73503       -3.01937
C          7.26085       -1.93120       -4.31623
P          9.08545       -1.88447       -4.12837
C          9.68170       -3.04006       -2.84732
C          9.00344       -4.40582       -2.98054
O          8.95457       -4.71965       -4.36351
Si         8.20090       -6.11374       -4.99507
C          6.39903       -6.11792       -4.46185
C          8.38964       -5.87703       -6.84047
C          9.09057       -7.63010       -4.35128
C          9.97766       -1.97745       -5.70756
C          9.50397       -0.98469       -6.78781
C          9.45469        0.49826       -6.39665
S         10.98148        1.16960       -5.68586
C         11.83413        1.79441       -7.17105
S         11.19030        1.63089       -8.69443
N         13.00676        2.39670       -6.88190
C         13.54869        2.53180       -5.52035
C         14.51432        1.40502       -5.14259
C         13.83268        2.97903       -7.95849
C         13.51651        4.45444       -8.20795
H          1.23202        0.06055        1.13633
H          0.87732       -0.99110       -0.24638
H          1.25756        0.72229       -0.50800
H          3.22804       -1.36842        0.63041
H          3.60284        0.33206        0.36538
H          3.19285        0.03567       -2.10298
H          2.82940       -1.66913       -1.83573
H          5.16672       -2.02267       -0.93080
H          5.52539       -0.31165       -1.20375
H          5.12383       -0.61216       -3.66631
H          4.79595       -2.35029       -3.39067
H          6.97948       -1.11832       -5.01536
H          6.96972       -2.89623       -4.77032
H          9.33237       -0.59769       -3.59761
H          9.49190       -2.57791       -1.86866
H         10.77096       -3.11041       -2.99161
H          7.99139       -4.35596       -2.54210
H          9.58169       -5.15365       -2.41116
H          5.85906       -5.22809       -4.81567
H          6.29210       -6.17372       -3.36921
H          5.88788       -6.99758       -4.87924
H          7.88291       -4.96316       -7.18251
H          7.94713       -6.72185       -7.38659
H          9.44823       -5.81525       -7.12841
H          8.99645       -7.72535       -3.25990
H         10.15985       -7.60487       -4.60299
H          8.66330       -8.54121       -4.79385
H          9.90043       -3.01994       -6.04476
H         11.03072       -1.78546       -5.44206
H          8.50842       -1.28001       -7.15675
H         10.18864       -1.08940       -7.64230
H          8.67236        0.72506       -5.65590
H          9.25654        1.09546       -7.30258
H         12.71277        2.59085       -4.80900
H         14.05702        3.50578       -5.47326
H         14.01173        0.42939       -5.16567
H         14.90350        1.56989       -4.12868
H         15.37159        1.36512       -5.82783
H         13.65670        2.38679       -8.86470
H         14.88344        2.84870       -7.66099
H         12.47602        4.58003       -8.53226
H         14.17121        4.84382       -8.99920
H         13.68087        5.06397       -7.30825
