67

O          1.77707        1.81775        0.07163
C          3.11135        1.29398       -0.12556
C          3.15711       -0.16952       -0.60607
C          2.64361       -0.44393       -2.03486
C          1.13005       -0.23101       -2.25090
N          0.77523        1.18822       -2.36346
C          0.71614        1.82894       -3.53096
N          0.48148        3.16080       -3.54589
N          0.90486        1.16969       -4.68119
C          1.13477       -0.28772       -4.77524
C          0.58674       -0.97649       -3.50275
C         -0.93948       -1.03450       -3.48338
O         -1.63439       -0.26716       -4.10716
C         -1.71015       -2.06769       -2.54756
C         -1.62984       -3.61226       -2.84440
C         -0.29460       -4.40543       -2.56742
C          0.38072       -4.12048       -1.18729
O          1.21046       -3.25330       -1.07312
O         -0.03507       -4.88356       -0.17445
F         -0.61394       -5.73460       -2.65470
F          0.59923       -4.13033       -3.55292
F         -2.57858       -4.20347       -2.06705
F         -1.95621       -3.79334       -4.15292
F         -1.30996       -1.86328       -1.24317
F         -3.01945       -1.75720       -2.62406
C          0.60639       -0.78460       -6.12923
C          0.82275       -2.28220       -6.35561
C          0.49115       -2.72725       -7.78210
N          0.70281       -4.16028       -7.91310
C          0.45566       -4.68654       -9.26547
C          0.63381       -6.18358       -9.28686
C         -0.46169       -7.03977       -9.12196
C         -0.31679       -8.42898       -9.09819
C          0.95604       -8.98299       -9.24998
C          2.06443       -8.15371       -9.42421
C          1.90864       -6.76267       -9.44065
O          2.97442       -5.91702       -9.61651
O          4.49470       -0.64597       -0.47506
H          1.46293        1.55658        0.95137
H          3.68729        1.36464        0.80779
H          3.58645        1.95826       -0.86569
H          2.57110       -0.78928        0.09429
H          2.87092       -1.49986       -2.23563
H          3.21787        0.16577       -2.75347
H          0.60547       -0.60686       -1.36400
H          0.88208        1.71197       -1.47942
H          0.12935        3.61435       -2.71172
H          0.33175        3.64597       -4.42136
H          0.62783        1.63415       -5.54054
H          2.22426       -0.45896       -4.76629
H          0.99498       -1.99097       -3.45175
H         -0.65584       -5.57339       -0.48277
H          1.14673       -0.22065       -6.90984
H         -0.45878       -0.53015       -6.23038
H          0.19167       -2.85939       -5.66179
H          1.86559       -2.56438       -6.13716
H          1.16261       -2.21873       -8.49526
H         -0.54277       -2.40194       -8.04310
H          0.10939       -4.66680       -7.25225
H          1.17643       -4.20772       -9.94576
H         -0.56105       -4.43912       -9.63687
H         -1.45605       -6.59726       -9.02194
H         -1.18762       -9.07169       -8.97291
H          1.09220      -10.06487       -9.24077
H          3.06086       -8.58549       -9.55142
H          3.77251       -6.45035       -9.76069
H          5.07390       -0.15310       -1.08072
