56

C          1.02631        7.50503        4.83208
C          2.52651        7.22690        4.95174
C          3.12938        6.61480        3.68177
C          4.62492        6.30656        3.80816
C          5.23311        5.72908        2.52510
C          6.71788        5.37032        2.68593
C          7.29922        4.84368        1.37967
N          8.74888        4.54968        1.41536
C          9.45955        4.37436        2.47956
C         10.88924        4.08512        2.19715
C         11.00216        4.47654        0.70440
C          9.56322        4.38846        0.15254
C          9.26780        3.07144       -0.58649
C          7.94421        3.00249       -1.37823
C          7.94503        1.86856       -2.34479
C          7.15215        0.79122       -2.31377
F          6.22685        0.59963       -1.37354
F          7.17962       -0.19199       -3.19155
F          8.86303        1.95921       -3.34327
C         11.92549        4.76537        3.11609
C         11.78094        4.57188        4.63933
C         11.69022        3.14817        5.19064
C         12.83872        2.15429        4.81303
Br        14.61320        2.85227        5.23234
F         12.66205        0.96971        5.41667
F         12.78051        1.92322        3.46235
Br        11.53639        3.23306        7.14025
F         10.52199        2.54761        4.71046
H          0.62816        7.95034        5.75338
H          0.46213        6.58057        4.63996
H          0.81205        8.20118        4.00781
H          2.70969        6.54950        5.80288
H          3.05891        8.16313        5.18999
H          2.96601        7.30156        2.83270
H          2.58617        5.68715        3.42983
H          4.78248        5.59733        4.63938
H          5.16766        7.22706        4.08533
H          5.11659        6.45611        1.70356
H          4.67017        4.82949        2.22337
H          6.81394        4.61519        3.48323
H          7.28175        6.26190        3.00918
H          7.16040        5.56837        0.56310
H          6.78807        3.91824        1.07350
H          8.99462        4.41044        3.46503
H         10.99769        2.99036        2.31724
H         11.68994        3.82660        0.15348
H         11.37672        5.50703        0.62311
H          9.31146        5.24086       -0.49622
H          9.34069        2.22114        0.11022
H         10.09375        2.95342       -1.30342
H          7.79816        3.94166       -1.94097
H          7.07425        2.88222       -0.72063
H         11.89701        5.85115        2.93409
H         12.91744        4.42763        2.78512
H         10.88322        5.08493        5.01499
H         12.63150        5.06595        5.12573
