63

C          0.53382        0.24244       -0.21985
C          1.93132       -0.04197        0.33436
C          2.52820       -1.35284       -0.19124
C          3.91996       -1.64951        0.38261
C          4.49506       -2.92997       -0.18665
O          5.80815       -3.15437        0.44421
C          6.46336       -4.25314        0.06875
O          6.08218       -5.06214       -0.75808
C          7.77327       -4.36880        0.85421
C          8.71110       -5.46360        0.30646
C          7.99118       -6.84678        0.28367
S          9.11155       -8.10449        1.02391
C         10.11744       -6.89009        1.62069
N          9.85913       -5.64859        1.28704
C         10.72752       -4.53648        1.75015
C         11.91491       -4.26436        0.86851
C         12.16847       -3.14320        0.18351
Br        10.99550       -1.66921        0.10066
Br        13.22295       -5.65254        0.80881
C          9.24370       -5.04249       -1.07804
C         10.18738       -6.03493       -1.76428
C         10.97757       -5.47996       -2.95478
C         10.31376       -5.48875       -4.38706
C          8.99973       -4.66969       -4.70224
C          8.91914       -3.10180       -4.52344
C          9.89277       -2.12571       -5.29634
C          9.89635       -2.14960       -6.87048
F          8.64701       -2.03518       -7.35147
F         10.62943       -1.11088       -7.30233
F         10.44545       -3.28544       -7.33160
F          9.51317       -0.87695       -4.91651
F         11.16148       -2.33847       -4.86674
F          7.64779       -2.76510       -4.85181
F          9.09178       -2.82386       -3.19515
F          8.67249       -4.94921       -5.98501
F          8.01069       -5.17660       -3.89946
F         11.25963       -5.11328       -5.27926
F          9.97642       -6.78987       -4.63734
F         11.43384       -4.21277       -2.69422
F         12.08768       -6.27310       -3.10815
H          0.13655        1.18990        0.16751
H         -0.17545       -0.55180        0.05522
H          0.54472        0.31157       -1.31744
H          1.89380       -0.07644        1.43605
H          2.60849        0.79053        0.07984
H          2.58210       -1.31161       -1.29292
H          1.84539       -2.18623        0.04876
H          3.86201       -1.73369        1.47982
H          4.60371       -0.81390        0.16269
H          4.64920       -2.87746       -1.27408
H          3.86576       -3.80600        0.02824
H          7.51469       -4.57558        1.90511
H          8.26245       -3.38470        0.83164
H          7.72806       -7.15670       -0.73142
H          7.07721       -6.85473        0.88702
H         10.96551       -7.12800        2.26438
H         11.06194       -4.79192        2.76515
H         10.11347       -3.63080        1.81818
H         13.07786       -2.99508       -0.39438
H          9.73637       -4.06762       -0.97626
H          8.34958       -4.87556       -1.68814
H          9.66286       -6.93636       -2.11090
H         10.97727       -6.36861       -1.07539
