93

C          0.78844       -0.11727       -0.56450
C          2.29099       -0.29713       -0.33345
C          2.89093        0.75366        0.60760
C          4.39188        0.57402        0.85473
C          4.99006        1.62302        1.79735
C          6.48168        1.41570        2.07726
C          7.08315        2.46325        3.01945
C          8.55851        2.21267        3.34587
C          9.16523        3.25387        4.29145
C         10.62438        2.95845        4.65533
C         11.22836        3.99301        5.61326
C         12.66179        3.65805        5.97790
O         13.14542        4.65847        6.90996
C         14.42297        4.40089        7.36977
N         14.68017        5.29521        8.56303
C         14.47462        6.75937        8.20590
C         15.00237        7.64939        9.33827
N         14.51157        7.29536       10.65294
C         14.67561        5.89312       10.94829
C         14.02384        4.89386        9.94291
C         14.43374        3.44273       10.27721
C         15.93365        3.11211       10.25570
C         16.19437        1.62326       10.50983
S         17.92054        1.26545       10.11862
O         18.09545        1.39536        8.68363
O         18.74985        1.98832       11.04739
O         18.00614       -0.30445       10.50026
C         12.48493        4.99750        9.83327
C         11.70770        5.01161       11.16103
O         11.87908        6.32657       11.69801
C         11.50984        6.49477       13.08810
C         12.33169        7.62371       13.64688
C         13.49301        7.35755       14.38519
C         14.29245        8.40123       14.85590
C         13.93805        9.72573       14.58696
C         12.78003       10.00219       13.85365
C         11.97928        8.95674       13.38932
C         10.23610        4.66179       10.93248
H          0.38925       -0.88599       -1.24060
H          0.56696        0.86385       -1.01047
H          0.22839       -0.18342        0.38029
H          2.82051       -0.26225       -1.30062
H          2.48273       -1.30255        0.07841
H          2.35646        0.72354        1.57378
H          2.70559        1.76076        0.19370
H          4.92797        0.60228       -0.11024
H          4.57358       -0.43327        1.26974
H          4.43647        1.61205        2.75300
H          4.83343        2.62946        1.37073
H          7.03826        1.41947        1.12363
H          6.63247        0.41039        2.50910
H          6.50207        2.48516        3.95838
H          6.97084        3.46643        2.57213
H          9.14242        2.18586        2.40924
H          8.66411        1.20926        3.79508
H          8.56297        3.30366        5.21554
H          9.09734        4.25467        3.83102
H         11.22867        2.91266        3.73312
H         10.68715        1.95463        5.11045
H         10.62932        4.04561        6.53728
H         11.19884        4.99522        5.15723
H         13.31198        3.64990        5.08468
H         12.73102        2.66400        6.45950
H         15.21086        4.65452        6.63212
H         14.56095        3.35368        7.68944
H         15.69113        5.19257        8.74545
H         13.40668        6.89905        8.01487
H         15.01818        6.92752        7.26480
H         14.74317        8.69164        9.10896
H         16.10802        7.59674        9.34613
H         13.55836        7.60415       10.84618
H         14.27655        5.68380       11.94697
H         15.75962        5.68140       10.99011
H         13.88928        2.74951        9.61580
H         14.03696        3.24396       11.28490
H         16.48371        3.69663       11.00473
H         16.38145        3.35460        9.27544
H         15.58895        0.97563        9.86005
H         16.03172        1.33801       11.55783
H         18.13505       -0.80617        9.67172
H         12.12351        4.16243        9.21929
H         12.18651        5.91204        9.30437
H         12.13726        4.27962       11.87655
H         11.71539        5.55886       13.63770
H         10.43003        6.70769       13.16201
H         13.76501        6.32272       14.60857
H         15.18772        8.18178       15.43883
H         14.55789       10.54319       14.95703
H         12.49401       11.03577       13.65555
H         11.06788        9.17495       12.82871
H          9.77619        5.36513       10.22409
H          9.67073        4.70352       11.87208
H         10.13381        3.64340       10.53177
