72

C          1.19314        2.73737       -1.35096
C          2.56418        2.14337       -1.01799
C          3.27213        1.52595       -2.22960
C          4.65361        0.94826       -1.90448
C          5.38544        0.37104       -3.12094
C          6.78514       -0.16092       -2.79435
C          7.53880       -0.70672       -4.01157
C          8.95161       -1.20118       -3.67847
C          9.69489       -1.77246       -4.89219
C         11.09016       -2.26151       -4.54205
O         11.69657       -2.81699       -5.72539
C         12.95134       -3.42083       -5.49237
C         13.29695       -4.19796       -6.77631
C         13.26883       -3.32699       -8.03632
N         14.49691       -2.45403       -8.09283
C         14.53394       -1.50908       -9.25426
C         15.06968       -0.18062       -8.70596
O         15.16112       -0.00656       -7.49906
O         15.36183        0.66521       -9.67269
C         15.87803        1.99917       -9.28173
C         17.39241        1.97584       -9.14728
C         17.94167        3.38308       -8.88494
C         15.75308       -3.29298       -7.97817
C         15.70120       -4.11903       -6.69604
O         14.51769       -4.92917       -6.68569
C         16.89906       -5.05501       -6.57082
C         16.94002       -5.73364       -5.19340
O         16.99046       -4.77777       -4.13083
H          0.71523        3.17116       -0.46185
H          0.51247        1.97245       -1.75361
H          1.27564        3.53428       -2.10522
H          2.45268        1.37616       -0.23312
H          3.20898        2.92620       -0.58362
H          3.37501        2.29261       -3.01815
H          2.63436        0.73453       -2.66154
H          4.54967        0.16374       -1.13437
H          5.27735        1.73672       -1.44746
H          5.46567        1.15032       -3.89938
H          4.77910       -0.43754       -3.56557
H          6.70582       -0.95353       -2.02983
H          7.37957        0.64580       -2.33048
H          7.60042        0.07822       -4.78578
H          6.95996       -1.53146       -4.46261
H          8.88966       -1.97191       -2.89090
H          9.53407       -0.36999       -3.24453
H          9.76910       -1.00681       -5.68213
H          9.12496       -2.61327       -5.31936
H         11.04806       -3.04189       -3.75937
H         11.71985       -1.43553       -4.15910
H         12.91884       -4.14228       -4.65577
H         13.71679       -2.66022       -5.22800
H         12.51230       -4.95707       -6.91065
H         12.38682       -2.67432       -8.02447
H         13.27339       -3.94746       -8.94194
H         14.50613       -1.79583       -7.27632
H         13.51573       -1.36500       -9.64025
H         15.15968       -1.91105      -10.05916
H         15.37979        2.29606       -8.34982
H         15.54696        2.64465      -10.10379
H         17.82681        1.56620      -10.07195
H         17.67551        1.30264       -8.32354
H         17.69957        4.07011       -9.70774
H         19.03383        3.35482       -8.78730
H         17.53605        3.80981       -7.95692
H         16.60915       -2.60544       -7.97511
H         15.79162       -3.93593       -8.86927
H         15.70712       -3.43750       -5.82407
H         17.82499       -4.47689       -6.72390
H         16.84962       -5.82143       -7.36111
H         17.78910       -6.43302       -5.15000
H         16.02104       -6.31571       -5.04003
H         17.91664       -4.56274       -3.94355
