54

O          3.07453       -1.31014        0.88285
C          4.17069       -0.40599        0.90224
C          3.57698        0.99554        0.95062
O          4.67713        1.91188        0.99275
C          4.28833        3.27076        1.01015
O          5.44488        4.05888        1.14477
C          6.07441        4.01061        2.41451
C          7.52865        3.49241        2.33990
C          8.19753        3.65154        3.72429
C          9.68254        3.28202        3.77345
C         10.33283        3.53103        5.13572
S         12.08972        3.13801        4.98219
O         12.25047        1.69987        4.91373
O         12.63847        4.00258        3.96392
O         12.65957        3.65440        6.40383
S          7.55120        1.66615        1.87435
C          8.84678        1.91786        0.82803
N          9.20000        3.15562        0.57589
C          8.30724        4.16753        1.18655
C         10.29374        3.50024       -0.37081
C          9.63334        4.06434       -1.65235
O          9.07948        5.14275       -1.69075
O          9.74661        3.18528       -2.65424
C          9.14794        3.58097       -3.94306
C          9.22879        2.38751       -4.86717
C         11.30033        4.48056        0.22745
H          3.41153       -2.21301        0.78430
H          4.80164       -0.50069       -0.00075
H          4.81467       -0.56004        1.78919
H          2.93603        1.10787        1.84409
H          2.95509        1.17186        0.05515
H          3.57837        3.45661        1.84348
H          3.83028        3.57266        0.05304
H          5.49996        3.40122        3.13061
H          6.12153        5.03926        2.81286
H          7.62938        3.06307        4.46316
H          8.07195        4.70987        4.01251
H         10.23984        3.87380        3.03393
H          9.81827        2.22166        3.51117
H          9.92649        2.89196        5.93155
H         10.27558        4.58357        5.44693
H         12.90718        2.86856        6.92926
H          9.36957        1.08462        0.35551
H          7.62357        4.53189        0.40627
H          8.90289        5.01422        1.55008
H         10.78321        2.54920       -0.61649
H          9.71340        4.44599       -4.31646
H          8.11612        3.90285       -3.74783
H         10.26859        2.07885       -5.03461
H          8.79354        2.65439       -5.83957
H          8.66640        1.53290       -4.46824
H         10.85352        5.46890        0.39184
H         12.12721        4.60962       -0.48278
H         11.72031        4.09881        1.16701
