70

C          0.29851        0.10074        0.11568
C          1.70004        0.67959        0.31363
C          2.58338        0.51208       -0.93541
C          3.93368        1.16303       -0.77495
O          4.15106        2.26831       -0.32074
O          4.94569        0.33978       -1.22305
C          6.27488        0.86925       -1.07951
C          6.59368        1.80858       -2.25149
C          7.92027        2.50896       -2.13935
C          8.94360        2.11119       -1.27702
C         10.10760        2.85913       -1.12580
C         10.28648        4.05236       -1.85187
C          9.28703        4.35969       -2.77303
N          8.15326        3.62490       -2.89905
C          7.10408        4.20568       -3.80299
O          6.30824        5.11759       -3.10861
C          6.88705        6.37784       -2.83459
C          7.45622        7.11046       -3.88281
C          8.03852        8.36175       -3.65926
C          8.64092        9.15659       -4.78789
C          8.01459        8.86055       -2.34669
C          7.40463        8.14032       -1.32402
C          6.81598        6.87745       -1.52397
C          6.12084        6.19697       -0.35196
C          4.60684        6.02798       -0.58188
C          6.77468        4.87310        0.08247
C         11.39706        5.00394       -1.68326
C         11.10916        6.38130       -1.69036
C         12.11513        7.33190       -1.54680
C         13.43754        6.90782       -1.39997
C         13.75614        5.54869       -1.38972
C         12.74526        4.58758       -1.52461
O         12.96853        3.24409       -1.54496
C         14.32326        2.77453       -1.47889
H         -0.30589        0.22152        1.02412
H          0.33191       -0.97285       -0.12052
H         -0.23157        0.60576       -0.70544
H          2.19199        0.18720        1.16749
H          1.64067        1.74847        0.56458
H          2.09717        1.00396       -1.79653
H          2.71314       -0.54531       -1.20228
H          6.92484       -0.01481       -1.06845
H          6.35277        1.40826       -0.12401
H          5.79394        2.56223       -2.28548
H          6.54485        1.23597       -3.19379
H          8.80680        1.20961       -0.68342
H         10.87073        2.53541       -0.42031
H          9.36764        5.21682       -3.43750
H          6.45639        3.40238       -4.16179
H          7.64844        4.64704       -4.64889
H          7.42471        6.71692       -4.90131
H          8.64131        8.59244       -5.72892
H          9.67819        9.44321       -4.56256
H          8.07995       10.08762       -4.95508
H          8.45832        9.83398       -2.13035
H          7.37287        8.56451       -0.31835
H          6.24308        6.89859        0.48915
H          4.39670        5.31611       -1.39033
H          4.13851        6.98782       -0.83623
H          4.12759        5.64274        0.32830
H          6.50718        4.06032       -0.60083
H          6.40758        4.58080        1.07549
H          7.86954        4.95877        0.13491
H         10.06996        6.70603       -1.77312
H         11.86684        8.39239       -1.53721
H         14.23747        7.63983       -1.28592
H         14.79434        5.24313       -1.27738
H         14.25725        1.68410       -1.54428
H         14.79795        3.05657       -0.52719
H         14.91622        3.15754       -2.32287
