49

C          2.11050       -0.13793        2.67656
O          3.15252        0.46798        1.90924
C          2.84352        0.54795        0.53466
C          4.01704        1.26820       -0.14199
O          3.78106        1.58112       -1.50647
C          3.85386        0.49660       -2.43193
C          4.69456        0.98922       -3.62068
C          4.81838        0.03422       -4.82141
P          5.69783       -1.55211       -4.59692
O          6.85487       -1.51761       -3.64866
O          4.48787       -2.51336       -4.13877
C          4.63895       -3.98052       -4.12112
C          4.84263       -4.48980       -2.70855
O          6.03979       -2.08517       -6.05439
C          7.37123       -1.93661       -6.66673
C          7.74145       -3.24130       -7.33691
N          4.46304       -0.66678       -1.77582
C          5.46113       -0.48649       -0.88482
N          6.50099       -1.32731       -0.88476
N          5.31000        0.54056       -0.02553
C          6.38763        1.02869        0.76015
C          6.24109        1.64392        1.93553
H          2.45903       -0.16278        3.71468
H          1.91185       -1.16852        2.33394
H          1.17791        0.44887        2.61759
H          1.93998        1.16017        0.35035
H          2.67014       -0.45558        0.10240
H          4.17324        2.23326        0.35479
H          2.84096        0.19428       -2.75077
H          5.69227        1.24780       -3.23511
H          4.23646        1.92660       -3.96801
H          5.38813        0.55133       -5.60860
H          3.83884       -0.20527       -5.26209
H          5.47032       -4.25574       -4.78420
H          3.70797       -4.35763       -4.56202
H          5.79008       -4.13401       -2.28309
H          4.87129       -5.58827       -2.71843
H          4.01508       -4.18787       -2.05141
H          8.08844       -1.65839       -5.88226
H          7.28786       -1.11470       -7.39201
H          7.84915       -4.04927       -6.60083
H          8.70312       -3.12417       -7.85582
H          6.98712       -3.53385       -8.07866
H          4.46111       -1.53408       -2.31654
H          6.79974       -1.65032       -1.82484
H          7.17059       -1.30678       -0.12410
H          7.36719        0.89178        0.29588
H          5.27147        1.75754        2.41888
H          7.11873        2.04491        2.43739
