40

O          1.11852       -0.24436        0.89426
C          2.49326        0.06992        0.81812
C          3.23334       -1.17633        1.36631
C          4.70322       -0.99384        1.27877
N          5.45312       -0.49497        2.22069
C          5.03116       -0.12937        3.58288
C          5.45138       -1.18986        4.60899
C          5.02248       -0.78551        6.03606
C          5.43609       -1.77722        7.01724
C          5.78982       -2.61941        7.80931
C          6.91373       -0.41740        1.83513
C          6.86604       -0.66152        0.31276
C          5.51182       -1.34976        0.07363
C          7.54089        0.88288        2.27669
C          7.05129        2.11903        1.83265
C          7.67337        3.28524        2.28139
N          8.72661        3.29067        3.11225
C          9.19320        2.10622        3.52642
C          8.63324        0.88087        3.14648
H          0.60121        0.46888        0.48736
H          2.75207        0.95364        1.43221
H          2.81746        0.27053       -0.21956
H          2.94281       -2.03726        0.74780
H          2.89296       -1.36886        2.39194
H          3.94443        0.01529        3.58078
H          5.49630        0.84008        3.80931
H          6.54264       -1.32285        4.59473
H          5.00308       -2.16071        4.34948
H          3.92747       -0.65738        6.08011
H          5.46043        0.19369        6.29435
H          6.09577       -3.35078        8.52847
H          7.41145       -1.25140        2.35533
H          7.71861       -1.26226       -0.01991
H          6.90742        0.29742       -0.21961
H          5.58785       -2.45204        0.04083
H          5.00818       -1.05582       -0.85764
H          6.19832        2.18770        1.15359
H          7.31090        4.26426        1.95716
H         10.05475        2.13423        4.19860
H          9.05313       -0.05493        3.52123
