75

C          0.94577        0.43402        0.07185
C          2.46495        0.28153        0.17758
C          3.10310       -0.33510       -1.07232
C          4.62193       -0.50710       -0.96638
C          5.26042       -1.10243       -2.22546
C          6.77714       -1.29124       -2.11023
C          7.40577       -1.85099       -3.39271
C          8.89952       -2.07069       -3.24623
O          9.42615       -2.47444       -4.54102
C         10.78456       -2.78286       -4.49403
N         11.15076       -3.26855       -5.85067
C         10.98515       -4.62437       -6.04167
C         11.21000       -5.24056       -7.24281
C         11.00610       -6.72562       -7.41248
C         10.43411       -7.49174       -6.21575
C         10.27595       -8.98031       -6.55114
C          9.64873       -9.77187       -5.40173
S          9.52751      -11.51597       -5.84817
O          8.54734      -11.67017       -6.90457
O         10.86394      -12.04007       -5.97196
O          8.89276      -12.13142       -4.48465
C         11.64048       -4.41930       -8.33656
C         11.78383       -3.00355       -8.13166
C         11.51581       -2.43468       -6.85165
C         11.57306       -0.95552       -6.61277
C         10.23828       -0.25477       -6.98063
C         10.21720        1.22851       -6.58949
S          9.87938        1.44993       -4.82932
O          8.48644        1.15580       -4.56454
O         10.92874        0.79892       -4.07475
O         10.10983        3.04023       -4.66453
C         12.18626       -2.18905       -9.22806
C         12.44156       -2.74505      -10.46282
C         12.30907       -4.13757      -10.65763
C         11.91770       -4.95686       -9.61708
H          0.52112        0.87491        0.98400
H          0.45626       -0.53885       -0.08478
H          0.66584        1.08297       -0.77142
H          2.71250       -0.34007        1.05474
H          2.92243        1.26704        0.36906
H          2.86619        0.29336       -1.94921
H          2.63745       -1.31652       -1.27189
H          4.85583       -1.14929       -0.09901
H          5.08639        0.47112       -0.75055
H          5.04115       -0.45101       -3.08935
H          4.78766       -2.07436       -2.45126
H          6.99685       -1.96121       -1.26061
H          7.24909       -0.32357       -1.86983
H          7.23754       -1.14670       -4.22124
H          6.92480       -2.80318       -3.66906
H          9.11863       -2.86779       -2.51114
H          9.41281       -1.14970       -2.92339
H         11.00730       -3.60890       -3.79412
H         11.41351       -1.92063       -4.22271
H         10.65165       -5.16225       -5.15912
H         11.97193       -7.17595       -7.70162
H         10.34203       -6.88072       -8.27973
H          9.45428       -7.07089       -5.93328
H         11.09517       -7.38666       -5.33914
H         11.25941       -9.41241       -6.79258
H          9.64946       -9.09344       -7.44974
H          8.62808       -9.43635       -5.17042
H         10.25650       -9.73656       -4.48633
H          7.98519      -12.42229       -4.69757
H         12.39114       -0.52891       -7.20679
H         11.81541       -0.73478       -5.56850
H          9.39779       -0.77933       -6.50369
H         10.07370       -0.32127       -8.06583
H          9.41179        1.76351       -7.10991
H         11.16882        1.74079       -6.79071
H          9.23527        3.46147       -4.54999
H         12.30158       -1.11497       -9.09848
H         12.75181       -2.10906      -11.29161
H         12.51845       -4.56731      -11.63751
H         11.82090       -6.02803       -9.78444
