58

Br         5.38068        1.23582       -2.15553
C          4.98567        0.33511       -0.46329
C          5.36638       -1.13671       -0.54429
C          5.07029       -1.84763        0.78782
N          5.39757       -3.28000        0.72009
C          6.56267       -3.82869        0.93187
C          7.79631       -3.09098        1.30081
C          8.82276       -3.04181        0.13663
C         10.04878       -2.20402        0.50122
C         11.13130       -2.27273       -0.59228
N         12.28196       -1.44809       -0.28747
C         12.46274       -0.14410       -0.70533
C         13.60694        0.34436       -0.10498
C         14.13351       -0.69391        0.71457
C         13.29606       -1.78512        0.58871
C          6.47907       -5.31205        0.77530
C          5.10555       -5.57312        0.10563
C          4.33906       -4.26239        0.37943
C          5.19189       -5.93546       -1.40226
C          5.67748       -4.82909       -2.31284
C          7.04435       -4.60688       -2.53154
C          7.46736       -3.55422       -3.34800
C          6.53542       -2.71971       -3.96386
C          5.15767       -2.93969       -3.79733
C          4.75467       -3.99536       -2.96767
C          4.14731       -2.07154       -4.49974
H          3.91431        0.48411       -0.28603
H          5.55642        0.87733        0.29966
H          6.43359       -1.23509       -0.78909
H          4.81547       -1.62899       -1.35712
H          4.00366       -1.78003        1.04135
H          5.63224       -1.39699        1.61677
H          8.25733       -3.61543        2.15327
H          7.56607       -2.06909        1.63049
H          8.33517       -2.63696       -0.76215
H          9.13040       -4.06866       -0.11601
H         10.48204       -2.55248        1.45213
H          9.76305       -1.15092        0.65269
H         10.72049       -1.94216       -1.55832
H         11.46705       -3.31366       -0.72496
H         11.77478        0.31396       -1.40912
H         14.03029        1.33194       -0.25637
H         15.03688       -0.65376        1.31448
H         13.34330       -2.77490        1.03229
H          6.54665       -5.76279        1.78150
H          7.33435       -5.70826        0.21149
H          4.60119       -6.40344        0.61516
H          3.65336       -4.32898        1.23793
H          3.77729       -3.89044       -0.48749
H          4.18930       -6.25557       -1.72280
H          5.84021       -6.81986       -1.49711
H          7.78515       -5.28089       -2.09664
H          8.53304       -3.40045       -3.52564
H          6.87613       -1.90810       -4.60920
H          3.68511       -4.20019       -2.86271
H          4.35886       -2.01184       -5.57651
H          4.17230       -1.04163       -4.11212
H          3.12778       -2.45779       -4.37789
