53

C          2.02758       -2.85430        7.08032
C          2.82897       -4.13118        6.81928
C          3.64743       -4.05911        5.52152
C          4.46287       -5.32486        5.32362
O          5.17786       -5.32180        4.02864
C          6.36313       -4.72465        3.99534
O          6.95479       -4.18273        4.90544
C          6.91515       -4.79262        2.55298
N          8.35785       -4.50854        2.55349
C          8.79708       -3.27549        2.84696
C         10.17177       -3.01829        2.93164
C         10.67503       -1.63754        3.26140
C         11.52140       -0.96333        2.15273
C         10.83674       -0.70689        0.81027
C          9.55462        0.18794        0.81955
Br         9.82541        1.90526        1.70365
F          9.10077        0.38388       -0.42691
F          8.56536       -0.48921        1.49571
Br        12.14485        0.09088       -0.40933
F         10.42623       -1.91678        0.26691
C         11.00793       -4.10688        2.70636
C         10.45964       -5.36681        2.39816
N          9.13642       -5.56280        2.33925
C         11.31196       -6.57973        2.12770
C         11.10175       -7.21695        0.73309
C         11.40146       -6.33885       -0.48081
C         12.84994       -5.76533       -0.61181
Br        14.22748       -7.14538       -0.52117
F         12.98500       -5.06297       -1.74654
F         13.05851       -4.88571        0.42316
Br        10.98195       -7.35393       -2.10356
F         10.57621       -5.22025       -0.45381
H          1.44429       -2.93901        8.00635
H          1.32457       -2.64856        6.26040
H          2.68966       -1.98214        7.18149
H          2.14558       -4.99472        6.77032
H          3.50643       -4.32214        7.66774
H          4.32175       -3.18889        5.55802
H          2.97324       -3.92014        4.66152
H          3.82716       -6.21572        5.25390
H          5.20808       -5.46160        6.11829
H          6.39987       -4.04528        1.93370
H          6.77252       -5.78524        2.11602
H          8.03833       -2.51229        3.00270
H         11.33064       -1.71843        4.14273
H          9.83656       -0.99384        3.55426
H         12.40317       -1.57853        1.92372
H         11.89449       -0.00641        2.53749
H         12.09229       -3.99832        2.75203
H         11.04276       -7.35210        2.86443
H         12.36579       -6.32905        2.29523
H         10.05358       -7.52841        0.62959
H         11.71709       -8.12221        0.66541
