75

C          2.48853       -8.20914        7.07024
C          2.98330       -6.85180        6.56397
C          3.71616       -6.94266        5.22113
C          4.18429       -5.58898        4.67671
C          4.94631       -5.72187        3.35354
C          5.33853       -4.40466        2.70117
O          6.15651       -3.54690        3.57318
C          7.46756       -3.81100        3.63030
O          8.03856       -4.72370        3.06026
C          8.17801       -2.77232        4.49228
C          9.65928       -3.09426        4.66199
N         10.34843       -2.07154        5.48611
C         11.63335       -1.95491        5.09769
N         12.55536       -1.22639        5.72610
C         12.34819       -0.46386        6.96871
C         13.53741        0.46586        7.20611
C         13.43615        1.23706        8.52619
N         14.60655        2.08522        8.69566
C         14.63046        2.77857        9.99779
C         15.78279        3.74668       10.10380
C         16.87230        3.50310       10.94781
C         17.92330        4.41458       11.07334
C         17.89453        5.60119       10.33799
C         16.82504        5.86661        9.48143
C         15.78086        4.94513        9.36568
O         14.70776        5.16287        8.52421
N         11.85054       -2.67327        3.97809
C         10.55734       -3.11249        3.38477
C         10.13200       -2.19826        2.22890
C         11.09797       -2.17696        1.02404
C         11.29636       -3.56576        0.39967
C         10.59186       -1.17246       -0.02001
H          1.97683       -8.11648        8.03765
H          3.32120       -8.91656        7.20048
H          1.77901       -8.66307        6.36233
H          3.65430       -6.39871        7.31413
H          2.12930       -6.16030        6.46616
H          3.05505       -7.42218        4.47791
H          4.58586       -7.61540        5.32585
H          4.82462       -5.09339        5.42628
H          3.31248       -4.92604        4.53733
H          4.31616       -6.24731        2.61513
H          5.84174       -6.34822        3.48642
H          4.46110       -3.77723        2.49814
H          5.89786       -4.57088        1.77089
H          7.68292       -2.74105        5.47512
H          8.02870       -1.77865        4.04474
H          9.75831       -4.07524        5.15655
H         10.06264       -1.87507        6.43961
H         13.49875       -1.23822        5.34976
H         12.23125       -1.16160        7.81554
H         11.41913        0.12028        6.87108
H         13.61007        1.17816        6.36717
H         14.47283       -0.11722        7.21990
H         13.41156        0.52200        9.36668
H         12.47171        1.79473        8.56372
H         14.62197        2.79745        7.96169
H         14.73097        2.01495       10.78463
H         13.68020        3.32071       10.19043
H         16.88698        2.57667       11.52576
H         18.75627        4.20245       11.74298
H         18.70443        6.32582       10.42692
H         16.79960        6.79255        8.90055
H         14.79880        6.04504        8.12908
H         12.63771       -2.46381        3.37103
H         10.65122       -4.14661        3.03810
H          9.99518       -1.16856        2.60042
H          9.15093       -2.54547        1.86972
H         12.08516       -1.80852        1.36794
H         10.33623       -3.98563        0.06384
H         11.74814       -4.28991        1.09299
H         11.95646       -3.50360       -0.47566
H          9.61161       -1.47975       -0.41490
H         11.28447       -1.10503       -0.86933
H         10.48146       -0.16460        0.40482
