70

C         12.05964      -12.40611        3.45983
C         11.48401      -11.24053        4.26688
C         11.91162       -9.86910        3.73456
C         11.35224       -8.69373        4.54206
C         11.78598       -7.32546        4.00713
C         11.24825       -6.14443        4.82142
C         11.69270       -4.78172        4.28039
C         11.17440       -3.59478        5.09878
C         11.63766       -2.24020        4.55161
C         11.12766       -1.03696        5.33857
O         11.55421       -1.02882        6.72811
C         12.89016       -0.59320        6.90273
N         13.30150       -0.86621        8.27865
C         12.55786       -0.35992        9.27860
N         12.79628       -0.56597       10.59302
C         11.71397        0.02340       11.40110
C         10.86557        0.83043       10.37207
N         11.51617        0.46811        9.09290
C         10.87182        2.33963       10.62839
C         10.05705        3.15396        9.62051
C         10.05055        4.65547        9.93189
C          9.25455        5.47431        8.91478
C         14.53796       -1.64909        8.57483
C         14.25047       -3.14117        8.74382
O         13.47860       -3.30274        9.94028
C         15.64635       -1.40365        7.54866
H         11.73659      -13.37510        3.86416
H         13.15973      -12.39184        3.46813
H         11.73691      -12.36023        2.40906
H         11.79431      -11.33257        5.32165
H         10.38257      -11.30056        4.26878
H         11.59390       -9.77271        2.68147
H         13.01461       -9.81167        3.72332
H         11.67004       -8.79224        5.59540
H         10.24961       -8.74933        4.55219
H         11.45656       -7.22342        2.95860
H         12.88916       -7.27786        3.98265
H         11.57607       -6.24643        5.87176
H         10.14545       -6.18654        4.84410
H         11.35607       -4.67788        3.23460
H         12.79641       -4.74733        4.24494
H         11.49892       -3.70039        6.14802
H         10.07107       -3.61681        5.12214
H         11.28188       -2.11399        3.51517
H         12.73937       -2.21636        4.48125
H         10.03029       -1.05306        5.39601
H         11.42910       -0.08893        4.85829
H         12.96774        0.49381        6.69636
H         13.58187       -1.12362        6.23573
H         13.20929       -1.45967       10.86092
H         12.13076        0.68431       12.17281
H         11.13101       -0.76717       11.89384
H          9.82600        0.46679       10.35238
H         11.02879        0.46229        8.20050
H         11.91756        2.69182       10.64762
H         10.46842        2.50023       11.64254
H          9.01751        2.78131        9.60101
H         10.46125        3.00270        8.60384
H         11.09001        5.02145        9.97087
H          9.63468        4.81203       10.94119
H          9.67589        5.37481        7.90343
H          9.26030        6.54141        9.17214
H          8.20477        5.14893        8.87233
H         14.89774       -1.26619        9.54242
H         15.21275       -3.67543        8.82186
H         13.70534       -3.52716        7.86391
H         13.27534       -4.24179       10.06969
H         15.46590       -1.91539        6.59401
H         16.58936       -1.79394        7.95132
H         15.78483       -0.33247        7.35685
