43

O          4.63119        0.13898        5.13547
C          4.62092        1.14926        4.11288
C          3.19995        1.17312        3.55082
C          2.90583       -0.10353        2.72231
N          1.49762       -0.20986        2.34529
C          0.96381        0.70537        1.32062
C         -0.53864        0.33771        1.23876
N         -0.71911       -0.24796        2.58828
C          0.47362       -0.68779        3.07743
N          0.50082       -1.50236        4.14064
C          1.61554       -2.27029        4.71247
C          2.25704       -3.26562        3.76284
C          1.52619       -3.91440        2.76192
C          2.15625       -4.85934        1.94771
C          3.50454       -5.16368        2.13277
C          4.25620       -4.52563        3.13319
C          3.61337       -3.57321        3.93521
C          5.71449       -4.84928        3.32831
N         -0.96655       -0.60295        0.23632
O          2.24465        1.31990        4.59494
H          5.39285        0.28496        5.71591
H          5.35283        0.92217        3.31793
H          4.85510        2.13889        4.53547
H          3.10322        2.05955        2.90280
H          3.20823       -1.00280        3.26631
H          3.48853       -0.08968        1.78922
H          1.48009        0.55731        0.36285
H          1.09252        1.75094        1.64102
H         -1.15576        1.23968        1.14506
H         -1.54596       -0.83088        2.70567
H         -0.40946       -1.67773        4.55003
H          1.17943       -2.79836        5.57305
H          2.37423       -1.59000        5.12568
H          0.46484       -3.70121        2.62125
H          1.58652       -5.37206        1.17174
H          3.98229       -5.91017        1.49561
H          4.18356       -3.06224        4.71637
H          6.32101       -4.45295        2.49992
H          5.87934       -5.93509        3.35522
H          6.10237       -4.42295        4.26176
H         -0.26870       -1.30706       -0.00101
H         -1.30254       -0.15354       -0.61201
H          2.64252        0.90734        5.38469
