65

C          3.61103       -2.61467       -0.17865
C          5.06103       -2.13894       -0.28715
C          5.19826       -0.87764       -1.15506
C          6.64855       -0.44543       -1.24736
O          6.78986        0.69857       -2.19862
C          7.00360        1.90017       -1.69295
O          7.09989        2.27090       -0.54685
P          7.25002        3.16336       -3.07006
C          6.39449        4.70871       -2.57473
O          6.74798        5.63937       -3.56230
C          6.16127        6.95606       -3.34596
C          6.64490        7.88575       -4.44307
C          6.15809        9.32661       -4.23331
C          6.64341       10.28614       -5.32611
C          6.23468       11.74138       -5.07675
C          6.70038       12.70605       -6.17152
C          6.31953       14.16547       -5.90146
C          6.77433       15.12200       -7.00544
C          9.02826        3.46534       -3.30707
C          9.76763        2.17812       -3.67745
O          9.06307        1.58642       -4.75226
C          9.62764        0.33186       -5.16896
C          8.89943       -0.12911       -6.42511
O          9.33583       -1.44842       -6.67852
C          8.82325       -1.97499       -7.89907
H          3.54100       -3.51503        0.44485
H          3.19632       -2.85967       -1.16670
H          2.97057       -1.84467        0.27420
H          5.68382       -2.94244       -0.71295
H          5.46190       -1.93647        0.71912
H          4.59442       -0.06202       -0.72646
H          4.81121       -1.07778       -2.16655
H          7.28175       -1.22174       -1.69506
H          7.06101       -0.13159       -0.28075
H          6.68583        2.70955       -4.28035
H          6.73669        4.97679       -1.55499
H          5.30610        4.49874       -2.52676
H          6.47222        7.31731       -2.34903
H          5.06083        6.85805       -3.35309
H          6.29883        7.50719       -5.41787
H          7.74637        7.86737       -4.46356
H          6.50715        9.68988       -3.25152
H          5.05568        9.34595       -4.19427
H          6.25215        9.95539       -6.30357
H          7.74307       10.22542       -5.40135
H          6.64234       12.07020       -4.10477
H          5.13656       11.80218       -4.98130
H          6.27541       12.39233       -7.14108
H          7.79656       12.63214       -6.28300
H          6.75430       14.47991       -4.93774
H          5.22584       14.23743       -5.77814
H          7.86710       15.09754       -7.12946
H          6.48900       16.15871       -6.78087
H          6.32512       14.85582       -7.97359
H          9.41654        3.90747       -2.37784
H          9.09221        4.22035       -4.10493
H          9.81832        1.49309       -2.80861
H         10.80621        2.42955       -3.96176
H          9.50752       -0.42258       -4.37072
H         10.70568        0.45143       -5.37247
H          9.13440        0.54284       -7.27333
H          7.80272       -0.09276       -6.26094
H          9.21181       -2.99548       -7.99175
H          9.15881       -1.37834       -8.76580
H          7.71892       -2.00600       -7.89208
