64

C         12.72781        1.19281       -8.13178
C         11.86574        0.04055       -7.61256
C         11.83494       -0.06347       -6.08308
C         10.95095       -1.21488       -5.59127
C         10.93833       -1.35018       -4.07796
O          9.99184       -2.37716       -3.71784
C          9.94970       -2.66503       -2.32409
C          8.79969       -3.64742       -2.08073
C          8.94165       -4.97829       -2.76687
C          8.62073       -6.19718       -2.18185
C          8.72259       -7.39431       -2.90774
C          8.39167       -8.71759       -2.28692
C          9.64796       -9.51028       -1.81525
C         10.42700       -8.76281       -0.72668
C          9.21846      -10.90387       -1.34240
C          9.18296       -7.32188       -4.23503
C          9.52006       -6.10297       -4.80401
N          9.37757       -4.98059       -4.05315
C         10.05860       -5.96362       -6.19796
C          9.41677       -4.83705       -7.01785
O          8.95327       -3.82475       -6.52364
O          9.48592       -5.12232       -8.31826
C          9.00354       -4.09712       -9.26065
C         10.12445       -3.15463       -9.67134
C          9.66443       -2.18076      -10.76699
C         10.78325       -1.25410      -11.25125
H         12.72762        1.22978       -9.22964
H         13.77270        1.09048       -7.80456
H         12.35979        2.16327       -7.76861
H         12.23687       -0.91174       -8.02868
H         10.83297        0.15296       -7.98490
H         11.47085        0.88854       -5.66043
H         12.86446       -0.19065       -5.70622
H         11.29854       -2.16421       -6.03196
H          9.91598       -1.07334       -5.93991
H         10.63313       -0.40380       -3.59508
H         11.93891       -1.61990       -3.69064
H          9.76364       -1.74512       -1.74200
H         10.91458       -3.08977       -1.98403
H          7.86415       -3.17684       -2.42950
H          8.68709       -3.81749       -1.00207
H          8.27478       -6.21127       -1.14861
H          7.84943       -9.33202       -3.02185
H          7.72051       -8.56881       -1.42728
H         10.30813       -9.63184       -2.69257
H          9.79847       -8.58661        0.16013
H         10.80586       -7.79017       -1.07221
H         11.29441       -9.35271       -0.40187
H          8.54866      -10.83854       -0.47180
H         10.09269      -11.49795       -1.04368
H          8.69128      -11.45648       -2.13253
H          9.27691       -8.22782       -4.83389
H          9.57361       -4.05059       -4.47701
H          9.97433       -6.91574       -6.73311
H         11.13722       -5.72793       -6.15069
H          8.16618       -3.56497       -8.79058
H          8.63602       -4.68620      -10.10992
H         10.97800       -3.74905      -10.03515
H         10.47107       -2.59021       -8.79134
H          8.82120       -1.57832      -10.39097
H          9.27117       -2.75598      -11.62136
H         11.16834       -0.62628      -10.43639
H         10.42325       -0.58494      -12.04371
H         11.62859       -1.82678      -11.65959
