84

C          0.18808       -2.95411       -0.32423
C          1.71766       -2.91136       -0.33832
C          2.32755       -2.65172        1.04278
C          3.85886       -2.63351        1.04635
C          4.46459       -2.33923        2.42256
C          5.99604       -2.36347        2.43634
C          6.60375       -2.00770        3.79758
C          8.13537       -2.04327        3.80542
C          8.75864       -1.64551        5.14809
C         10.29318       -1.67470        5.10574
C         11.03465       -1.16301        6.37768
C         12.20968       -0.24215        5.97307
C         13.32496       -1.02020        5.26243
C         13.82030       -2.18780        6.10578
N         12.65239       -3.03893        6.55954
C         11.52519       -2.29691        7.33430
C         12.13774       -1.76146        8.64975
C         12.77179       -2.79513        9.62665
C         14.10534       -2.26456       10.20863
C         13.99293       -1.00811       11.07763
C         11.81296       -3.23669       10.74387
C         10.46554       -3.38655        7.59143
C          9.25539       -2.91956        8.40855
O          9.05587       -1.77746        8.77240
O          8.46460       -3.97318        8.66478
C          7.26918       -3.71906        9.49029
C          6.05661       -3.34386        8.65403
C          5.57021       -4.43409        7.69386
C          4.28031       -4.04483        6.96284
C          3.78973       -5.11821        5.98982
H         -0.21885       -3.14744       -1.32606
H         -0.23373       -2.00101        0.02769
H         -0.18191       -3.74608        0.34379
H          2.05932       -2.12986       -1.03781
H          2.10954       -3.86378       -0.73383
H          1.97119       -3.42373        1.74787
H          1.94947       -1.68946        1.43115
H          4.21730       -1.88008        0.32320
H          4.23445       -3.60583        0.68169
H          4.08180       -3.07294        3.15382
H          4.11221       -1.35235        2.77027
H          6.37821       -1.66069        1.67552
H          6.34738       -3.36384        2.12813
H          6.21711       -2.70145        4.56443
H          6.26122       -1.00201        4.09688
H          8.51758       -1.37127        3.01730
H          8.47566       -3.05737        3.52835
H          8.37076       -2.30596        5.93995
H          8.43269       -0.62846        5.42268
H         10.60909       -1.04900        4.25558
H         10.61067       -2.69706        4.81820
H         10.32193       -0.57706        6.97537
H         12.61802        0.28567        6.84624
H         11.82443        0.53842        5.30313
H         14.18436       -0.37031        5.04725
H         12.97321       -1.39553        4.28809
H         14.33548       -1.85419        7.01430
H         14.49598       -2.85253        5.55120
H         12.99531       -3.80003        7.16307
H         12.21754       -3.47607        5.73416
H         11.32283       -1.22037        9.14893
H         12.88854       -0.99936        8.40624
H         13.04808       -3.71642        9.06923
H         14.80267       -2.06642        9.37555
H         14.56494       -3.07278       10.79852
H         13.54694       -0.16216       10.53468
H         14.98799       -0.69050       11.41445
H         13.38693       -1.18481       11.97598
H         11.46509       -2.37364       11.32717
H         12.31555       -3.92995       11.43209
H         10.92177       -3.74962       10.36092
H         10.90918       -4.24041        8.12780
H         10.07836       -3.79378        6.64415
H          7.51968       -2.93042       10.21051
H          7.11858       -4.67179       10.01433
H          6.26317       -2.40881        8.10943
H          5.25372       -3.10211        9.37156
H          5.40267       -5.36836        8.25711
H          6.35685       -4.66147        6.95421
H          4.44110       -3.09781        6.42042
H          3.49514       -3.83510        7.70818
H          4.53450       -5.31684        5.20401
H          2.85876       -4.81314        5.49382
H          3.59443       -6.06804        6.50850
