96

C         14.30443       26.59307        2.62938
C         13.68970       25.22293        2.92227
C         14.19648       24.12464        1.98308
C         13.62529       22.73577        2.28290
C         14.12489       21.65942        1.31535
C         13.64149       20.24278        1.64125
C         14.13783       19.20554        0.63019
C         13.77302       17.75615        0.96473
C         14.29420       16.76926       -0.08398
C         14.01578       15.29525        0.22358
C         14.58456       14.36015       -0.84830
C         14.36927       12.86870       -0.57579
C         14.98792       11.97760       -1.65896
C         14.80882       10.47839       -1.40195
C         15.36799        9.54547       -2.48533
C         16.90857        9.54784       -2.62005
C         17.51673       10.67981       -3.38750
N         18.65076       11.28568       -3.08036
C         19.50774       10.98965       -1.91518
C         20.52972        9.88069       -2.16780
O         21.34350       10.25792       -3.25735
C         22.52677        9.45258       -3.38291
C         23.35266        9.94294       -4.55182
O         23.85052       11.23626       -4.26730
C         24.71620       11.72017       -5.28905
C         19.15660       12.22075       -4.11451
C         17.96858       12.65594       -4.97295
S         16.78926       11.22546       -4.84909
C         18.32126       13.00651       -6.41658
C         17.11563       13.43162       -7.26275
C         17.50401       13.83527       -8.68800
C         16.28802       14.26539       -9.52548
N         16.62760       14.59868      -10.89669
C         17.10920       15.81803      -11.33009
C         17.41040       15.70875      -12.67525
C         17.10841       14.37527      -13.07091
C         16.63212       13.71212      -11.95521
H         13.91735       27.36407        3.30957
H         14.08531       26.91614        1.60066
H         15.39879       26.56921        2.74151
H         12.59102       25.28561        2.84687
H         13.90587       24.93647        3.96540
H         15.29895       24.08160        2.03741
H         13.95738       24.40113        0.94071
H         12.52244       22.77555        2.25028
H         13.88809       22.44984        3.31663
H         15.22941       21.66670        1.30584
H         13.81386       21.92299        0.28890
H         12.53833       20.22541        1.67740
H         13.98385       19.96432        2.65334
H         15.23661       19.28497        0.54647
H         13.74199       19.45789       -0.36946
H         12.67729       17.65793        1.05383
H         14.18445       17.49337        1.95494
H         15.38444       16.91101       -0.19500
H         13.85674       17.02285       -1.06589
H         12.92838       15.13250        0.31635
H         14.44858       15.03506        1.20515
H         15.66839       14.55442       -0.94943
H         14.13861       14.61790       -1.82536
H         13.28926       12.65602       -0.50326
H         14.79839       12.60641        0.40664
H         16.06336       12.22654       -1.73489
H         14.54713       12.23547       -2.63758
H         13.73376       10.26079       -1.29926
H         15.25870       10.21214       -0.42935
H         14.90982        9.77318       -3.46145
H         15.07664        8.51193       -2.25037
H         17.21561        8.63421       -3.16110
H         17.37423        9.47758       -1.62668
H         18.87254       10.72441       -1.06110
H         20.03213       11.92271       -1.67108
H         20.02263        8.91363       -2.36139
H         21.12155        9.76403       -1.23885
H         22.25178        8.39462       -3.55051
H         23.11647        9.52077       -2.45090
H         22.73952        9.94916       -5.47653
H         24.18117        9.22350       -4.71064
H         25.05774       12.71336       -4.97476
H         24.19077       11.80661       -6.25803
H         25.59269       11.06068       -5.42046
H         19.92445       11.68755       -4.69689
H         19.63501       13.07648       -3.62062
H         17.43234       13.49409       -4.50057
H         18.83644       12.15205       -6.88437
H         19.05221       13.83245       -6.38126
H         16.59830       14.27053       -6.76583
H         16.38565       12.60275       -7.30744
H         18.00442       12.99506       -9.19514
H         18.23058       14.66285       -8.65923
H         15.80126       15.13945       -9.06482
H         15.54087       13.45716       -9.54837
H         17.17928       16.66154      -10.65016
H         17.78805       16.50608      -13.30746
H         17.20794       13.95215      -14.06547
H         16.27734       12.69405      -11.82737
