53

C          0.08662        3.13090       -0.48860
C          1.57934        2.79567       -0.50244
C          2.28651        3.25331       -1.78438
C          3.79324        2.95959       -1.76803
C          4.46338        3.41146       -3.04795
O          5.91748        3.16284       -2.90542
C          6.66939        3.38856       -3.97149
O          6.30620        3.75983       -5.07346
C          8.14397        3.13122       -3.64851
S          9.03790        3.06156       -5.23229
C          9.21825        4.81438       -5.80480
C         10.07472        4.78626       -7.03689
C         11.38931        5.27127       -6.99220
C         12.18864        5.20129       -8.13598
C         11.68588        4.63982       -9.30927
C         10.36897        4.14876       -9.37815
C          9.57559        4.23057       -8.22743
C          9.82230        3.58056      -10.66089
C         10.73452        2.62983       -4.68429
C         10.96392        1.12799       -4.84502
C         11.09230        0.68237       -6.30627
C         10.77970       -0.80815       -6.46264
O         10.17837       -1.45129       -5.63682
O         11.18134       -1.38436       -7.62481
H         -0.38976        2.78543        0.43831
H         -0.43974        2.65478       -1.32882
H         -0.08125        4.21531       -0.56353
H          1.71731        1.70828       -0.38199
H          2.07139        3.26222        0.36735
H          2.12430        4.33615       -1.92320
H          1.81949        2.76074       -2.65464
H          3.96559        1.88068       -1.62775
H          4.26250        3.47229       -0.91327
H          4.33439        4.48710       -3.23622
H          4.11698        2.85831       -3.93181
H          8.29108        2.16065       -3.15400
H          8.56013        3.92290       -3.00913
H          9.65315        5.39834       -4.98306
H          8.17995        5.12110       -5.98615
H         11.77919        5.72229       -6.07730
H         13.20721        5.58912       -8.11070
H         12.32190        4.58745      -10.19498
H          8.54639        3.86316       -8.26277
H          9.60510        4.38608      -11.37860
H          8.89160        3.02400      -10.49644
H         10.54665        2.91063      -11.14359
H         10.85646        2.97943       -3.65090
H         11.39111        3.22279       -5.33810
H         10.16243        0.54269       -4.36778
H         11.87994        0.87246       -4.29193
H         12.09111        0.91828       -6.70543
H         10.37190        1.21975       -6.95008
H         11.67541       -0.75227       -8.17618
