110

C         13.54998       -4.57937       -7.81816
C         13.21576       -3.73093       -6.58866
C         13.79387       -4.29452       -5.28571
C         13.46900       -3.44946       -4.05022
C         14.04762       -4.01319       -2.74837
C         13.71933       -3.16730       -1.51419
C         14.29035       -3.73139       -0.20921
C         13.94885       -2.88706        1.02257
C         14.51146       -3.44908        2.33219
C         14.14801       -2.60874        3.56069
C         14.72870       -3.15046        4.87136
C         14.33867       -2.31630        6.09648
C         15.01021       -2.78552        7.39215
C         14.59236       -1.95812        8.61380
C         15.20683       -2.41731        9.95290
P         17.02091       -2.35179       10.03161
C         17.64619       -0.67990        9.61540
O         19.04125       -0.79546        9.57847
C         19.69397        0.42407        9.12539
C         21.18560        0.17381        9.00997
C         21.59075       -0.79023        7.88726
C         23.10775       -0.95771        7.77022
C         17.67606       -2.91866       11.62797
C         17.18166       -4.31440       12.06354
C         17.49851       -5.45568       11.08795
C         17.00767       -6.81991       11.58764
C         17.33123       -7.97414       10.63170
C         16.76197       -9.32084       11.09206
C         17.12396      -10.49138       10.17105
C         16.54167      -11.83101       10.63451
C         16.92455      -13.01521        9.74021
C         16.34986      -14.35052       10.22533
C         16.73361      -15.54115        9.34224
C         16.15412      -16.86452        9.86229
N         16.50508      -18.01357        9.04178
C         17.65647      -18.76087        9.16670
C         17.68004      -19.69370        8.14555
C         16.50433      -19.49934        7.36862
C         15.80148      -18.45446        7.94146
H         13.11965       -4.15096       -8.73383
H         13.15932       -5.60291       -7.71571
H         14.63747       -4.65603       -7.96724
H         12.12062       -3.64036       -6.48944
H         13.58961       -2.70343       -6.73642
H         14.88988       -4.38934       -5.38556
H         13.41701       -5.32187       -5.13525
H         12.37307       -3.35551       -3.95061
H         13.84528       -2.42217       -4.20162
H         15.14377       -4.10621       -2.84649
H         13.67174       -5.04053       -2.59692
H         12.62315       -3.07174       -1.41976
H         14.09777       -2.14068       -1.66429
H         15.38750       -3.82109       -0.29883
H         13.91592       -4.75975       -0.06160
H         12.85168       -2.79569        1.10777
H         14.32483       -1.85904        0.87608
H         15.61039       -3.52729        2.25396
H         14.14552       -4.48109        2.47442
H         13.04921       -2.54506        3.64650
H         14.49843       -1.57232        3.41064
H         15.82974       -3.19123        4.79081
H         14.39769       -4.19327        5.01835
H         13.24292       -2.33853        6.22409
H         14.60059       -1.25871        5.91739
H         16.10535       -2.73978        7.24860
H         14.77313       -3.84887        7.57125
H         13.49972       -2.01261        8.73650
H         14.81551       -0.89230        8.44566
H         14.93699       -3.46248       10.17613
H         14.84372       -1.80895       10.79716
H         17.55185       -3.18578        9.02626
H         17.27608        0.03703       10.37838
H         17.20681       -0.39039        8.63893
H         19.47623        1.22689        9.85156
H         19.25953        0.70927        8.14888
H         21.56332       -0.18449        9.98200
H         21.66140        1.15506        8.84504
H         21.18624       -0.41632        6.93119
H         21.12084       -1.77212        8.05650
H         23.60257        0.00427        7.57215
H         23.37135       -1.63971        6.95125
H         23.53992       -1.36702        8.69504
H         17.40326       -2.14594       12.36455
H         18.77188       -2.88573       11.51665
H         16.09887       -4.27782       12.26437
H         17.65350       -4.52310       13.03607
H         18.58628       -5.49327       10.90514
H         17.03426       -5.26343       10.10238
H         15.91665       -6.77387       11.75107
H         17.45230       -7.02661       12.57609
H         18.42622       -8.05791       10.51909
H         16.94119       -7.73889        9.62523
H         15.66306       -9.24296       11.16915
H         17.12013       -9.53830       12.11344
H         18.22290      -10.57520       10.10398
H         16.77507      -10.27493        9.14587
H         15.44123      -11.75262       10.68422
H         16.87505      -12.03381       11.66747
H         18.02458      -13.09089        9.68494
H         16.58342      -12.82297        8.70798
H         15.24939      -14.27392       10.28039
H         16.68996      -14.53644       11.25953
H         17.83049      -15.63236        9.28439
H         16.38158      -15.37940        8.31044
H         15.05587      -16.80577        9.91170
H         16.50748      -17.05760       10.88698
H         18.35389      -18.57268        9.97690
H         18.45032      -20.44169        7.98713
H         16.19649      -20.06959        6.49803
H         14.85691      -17.99526        7.66746
