107

C         16.19052      -10.89039        4.15701
C         15.83469       -9.51116        3.59672
C         16.34966       -8.35054        4.45527
C         15.98739       -6.97016        3.89919
C         16.50004       -5.80232        4.74769
C         16.12642       -4.42925        4.18050
C         16.63906       -3.24979        5.01245
C         16.24941       -1.88584        4.43447
C         16.77503       -0.69279        5.23868
C         16.34778        0.65999        4.66081
C         16.90611        1.86759        5.41961
C         16.43895        3.21069        4.85018
C         17.00548        4.42693        5.58860
C         16.50858        5.76551        5.03431
C         17.08445        6.98212        5.76466
C         16.55764        8.32076        5.23244
C         17.08130        9.55101        5.98683
C         18.56614        9.85877        5.74876
C         19.07853       10.98221        6.65326
C         20.55673       11.31347        6.41384
N         21.09716       12.26256        7.39661
C         20.97238       13.71842        7.17752
C         20.66731       14.26952        8.58185
N         21.05501       13.14625        9.44811
C         21.19569       12.02516        8.72191
N         21.32413       10.79101        9.27040
C         22.25776        9.78269        8.77987
C         23.69071       10.35112        8.60270
O         23.88083       11.53408        8.85601
C         24.75990        9.44161        8.13089
C         24.52399        8.08758        7.82212
C         25.56965        7.27572        7.38635
C         26.85776        7.80462        7.25800
C         27.10171        9.14973        7.56250
C         26.06149        9.96445        7.99539
C         21.15148       13.28131       10.89821
C         19.77991       13.40309       11.58338
C         18.83130       12.23273       11.30326
C         17.43734       12.40579       11.91618
C         16.47946       11.26038       11.56749
C         15.07450       11.44738       12.14507
H         15.80693      -11.69753        3.51766
H         15.76707      -11.03409        5.16248
H         17.28018      -11.02026        4.23790
H         14.73934       -9.42640        3.49457
H         16.23969       -9.41234        2.57513
H         17.44715       -8.42936        4.55374
H         15.94879       -8.44930        5.47989
H         14.88970       -6.89404        3.80271
H         16.38526       -6.87534        2.87320
H         17.59834       -5.87276        4.84150
H         16.10403       -5.89401        5.77463
H         15.02771       -4.36030        4.09105
H         16.51625       -4.34319        3.15069
H         17.73871       -3.31177        5.09581
H         16.25379       -3.33360        6.04407
H         15.14894       -1.82173        4.36650
H         16.61793       -1.81234        3.39594
H         17.87760       -0.74069        5.28494
H         16.42587       -0.77120        6.28352
H         15.24500        0.71672        4.64836
H         16.66237        0.71960        3.60384
H         18.00999        1.82784        5.40790
H         16.61338        1.80042        6.48249
H         15.33587        3.25160        4.87549
H         16.71669        3.27127        3.78310
H         18.10917        4.39895        5.54436
H         16.74498        4.35737        6.65979
H         15.40635        5.79653        5.08921
H         16.75768        5.83334        3.96077
H         18.18567        6.94919        5.69289
H         16.84857        6.90647        6.84150
H         15.45715        8.31656        5.29097
H         16.79972        8.41525        4.15934
H         16.91134        9.40778        7.06918
H         16.48834       10.43578        5.70168
H         18.72004       10.12401        4.68880
H         19.17186        8.95467        5.92922
H         18.94755       10.68263        7.70593
H         18.47224       11.89242        6.50911
H         20.70942       11.76921        5.42598
H         21.16512       10.39867        6.41085
H         20.16474       13.92406        6.46521
H         21.91317       14.11578        6.76960
H         19.60329       14.51990        8.72259
H         21.26965       15.15452        8.82353
H         21.21288       10.79362       10.27924
H         21.90738        9.34041        7.83638
H         22.26337        8.96536        9.51343
H         23.52781        7.65361        7.91610
H         25.38308        6.22821        7.14915
H         27.67461        7.16597        6.91984
H         28.10738        9.55844        7.46177
H         26.23047       11.01340        8.23913
H         21.76953       14.16708       11.10993
H         21.71974       12.42107       11.28404
H         19.30310       14.34810       11.27464
H         19.96034       13.50163       12.66516
H         19.27767       11.29406       11.68160
H         18.71645       12.10014       10.21265
H         17.00613       13.36013       11.56633
H         17.52289       12.49632       13.01234
H         16.90403       10.30837       11.92918
H         16.41634       11.16555       10.46923
H         15.09624       11.50787       13.24296
H         14.41701       10.61090       11.87277
H         14.60826       12.37095       11.77140
