61

C          8.42395       -3.56108      -14.85985
C          7.78482       -3.05254      -13.56639
C          8.63583       -3.34197      -12.32631
C          8.02304       -2.82655      -11.02095
C          8.91887       -3.06480       -9.80172
C          8.33231       -2.52434       -8.49372
C          9.29021       -2.67117       -7.30588
C          8.71007       -2.10976       -6.00418
C          9.63843       -2.23195       -4.79116
N         10.93520       -1.54435       -4.96642
N         12.04810       -2.21696       -5.16892
N         13.02886       -1.36638       -5.40357
C         12.50318       -0.13739       -5.33807
N         11.17318       -0.20927       -5.07580
C         10.19754        0.89963       -4.94748
C          9.33416        0.92756       -3.68353
C         10.06924        0.87695       -2.33997
S         11.21591        2.25807       -2.07756
C         12.79951        1.41741       -1.78784
S         13.01780       -0.22689       -2.01125
N         13.76908        2.26127       -1.38685
C         15.14404        1.77152       -1.14909
C         15.36366        1.31428        0.29202
C         13.55929        3.69684       -1.11979
C         13.88159        4.59054       -2.31881
Br        13.44071        1.41548       -5.65693
H          7.79725       -3.33865      -15.73384
H          8.57671       -4.64984      -14.82761
H          9.40615       -3.09440      -15.02734
H          6.78934       -3.51017      -13.43991
H          7.61194       -1.96560      -13.64111
H          9.63427       -2.88919      -12.46125
H          8.80610       -4.42980      -12.24650
H          7.04293       -3.30753      -10.85872
H          7.81954       -1.74530      -11.11593
H          9.90123       -2.59264       -9.98018
H          9.11719       -4.14501       -9.69467
H          7.38453       -3.04252       -8.26958
H          8.07426       -1.45831       -8.62328
H         10.23807       -2.16108       -7.55161
H          9.54779       -3.73379       -7.16224
H          7.79599       -2.66023       -5.72897
H          8.39200       -1.06369       -6.14199
H          9.94584       -3.27298       -4.62573
H          9.18480       -1.85737       -3.86550
H          9.56878        0.88522       -5.84846
H         10.83035        1.79610       -4.98550
H          8.57862        0.12842       -3.70327
H          8.75935        1.86319       -3.77151
H         10.68965       -0.03293       -2.22473
H          9.33205        0.90487       -1.52691
H         15.82025        2.60019       -1.40442
H         15.32841        0.94598       -1.84763
H         15.17242        2.12394        1.00944
H         16.40583        0.99259        0.41934
H         14.71060        0.46677        0.53378
H         14.20422        3.95319       -0.26713
H         12.52375        3.84630       -0.78444
H         14.92003        4.45796       -2.65124
H         13.75179        5.64456       -2.03925
H         13.21363        4.37856       -3.16417
