75

C         10.20813        7.35245      -11.52504
C          9.68890        7.84391      -10.17240
C         10.33749        7.12807       -8.98370
C          9.81984        7.60386       -7.62338
C         10.52721        6.94666       -6.43464
C         10.01384        7.43264       -5.07611
C         10.77351        6.84217       -3.88461
C         10.28123        7.36566       -2.53207
C         11.10805        6.86434       -1.34423
C         10.65042        7.45104       -0.00467
C         11.51647        7.06465        1.18766
O         12.92595        7.41490        1.03568
C         13.17105        8.77128        0.95360
N         14.66996        8.93311        0.96912
C         15.07461       10.38241        0.83847
C         15.47943       10.48345       -0.63685
O         16.16445        9.23320       -0.82266
C         15.41313        8.20845       -0.24861
C         16.33400        7.08547        0.18933
C         15.68468        5.81813        0.75477
C         16.72711        4.73024        1.04134
C         16.12897        3.46317        1.65929
C         17.17458        2.38317        1.95719
C         16.57586        1.12665        2.59172
C         16.40508       11.64728       -0.97485
C         16.78428       11.68368       -2.43134
C         16.47930       12.68676       -3.25708
H          9.74077        7.89475      -12.35821
H          9.99957        6.28156      -11.66598
H         11.29678        7.49031      -11.60696
H          8.59499        7.71062      -10.12512
H          9.86598        8.92893      -10.08005
H         11.43172        7.27283       -9.02854
H         10.17269        6.04037       -9.07816
H          8.73474        7.41225       -7.55704
H          9.93820        8.69969       -7.55271
H         11.61157        7.14473       -6.50553
H         10.41483        5.85043       -6.49886
H          8.94054        7.19385       -4.98204
H         10.08306        8.53430       -5.03662
H         11.84890        7.07235       -3.99351
H         10.69616        5.74149       -3.90409
H          9.22385        7.08577       -2.38911
H         10.30123        8.47034       -2.54430
H         12.16978        7.11481       -1.51746
H         11.06713        5.76312       -1.29442
H          9.62859        7.10886        0.22784
H         10.57153        8.54990       -0.08002
H         11.54357        5.97626        1.32585
H         11.14388        7.52543        2.11920
H         12.77215        9.33607        1.81834
H         12.81859        9.24063        0.01584
H         15.02067        8.51535        1.84088
H         15.93557       10.56634        1.49172
H         14.23849       11.02791        1.13014
H         14.58074       10.51569       -1.28274
H         14.58122        7.87201       -0.89173
H         17.07155        7.50249        0.89724
H         16.91072        6.83131       -0.71496
H         14.93346        5.43762        0.04416
H         15.13261        6.04407        1.68240
H         17.50080        5.13391        1.71765
H         17.24870        4.47163        0.10393
H         15.36156        3.05063        0.98118
H         15.60161        3.72527        2.59362
H         17.94659        2.80223        2.62418
H         17.69410        2.11449        1.02232
H         16.08078        1.35856        3.54633
H         17.34969        0.37422        2.79375
H         15.82695        0.66428        1.93220
H         17.30601       11.55896       -0.34338
H         15.89542       12.58320       -0.69711
H         17.35011       10.82475       -2.80207
H         15.92718       13.56604       -2.91739
H         16.78345       12.67250       -4.30331
