45

O          7.82732        7.47688        2.79902
C          6.67285        7.08492        2.04954
C          6.26900        5.70941        2.55255
N          7.37178        4.75997        2.36398
C          7.18345        3.46983        3.01190
C          6.47912        2.47682        2.06867
C          7.42102        2.09991        0.92674
N          6.75489        1.37988       -0.16850
C          6.63438        0.03386       -0.25352
C          7.17322       -1.01237        0.66544
C          6.27203       -2.24559        0.76030
O          6.13791       -2.80550       -0.55946
N          5.94640       -0.22170       -1.37844
C          5.61016        0.95297       -2.01473
C          6.11595        1.98230       -1.26221
C          6.06914        3.46130       -1.50265
C          4.72301        3.95072       -2.07332
C          3.55175        3.79523       -1.10142
O          6.11881        1.25986        2.72682
H          8.13337        8.33949        2.48170
H          6.90388        7.03744        0.96973
H          5.83604        7.78825        2.20084
H          5.38046        5.37750        1.99093
H          5.97411        5.78904        3.61908
H          8.22273        5.20896        2.70390
H          6.58107        3.53852        3.94310
H          8.16073        3.05219        3.30108
H          5.57997        2.96266        1.64382
H          8.23070        1.46583        1.31119
H          7.86590        3.01661        0.52251
H          7.28059       -0.58674        1.67095
H          8.17240       -1.32315        0.31513
H          5.28591       -1.96567        1.16789
H          6.74081       -2.97007        1.44325
H          5.68087       -3.65895       -0.49880
H          5.73150       -1.18914       -1.64195
H          5.05024        0.96606       -2.94138
H          6.88265        3.73134       -2.19653
H          6.28107        3.99741       -0.56560
H          4.50682        3.42711       -3.01787
H          4.84441        5.00967       -2.34339
H          3.38452        2.74423       -0.82455
H          2.62082        4.16949       -1.54557
H          3.72652        4.36359       -0.17560
H          5.53623        1.47237        3.47406
