83

C         -1.06785        1.60238       -1.89777
C          0.39075        1.15970       -1.76007
C          1.36003        2.33752       -1.60369
C          2.80676        1.88011       -1.43362
N          3.72374        3.02306       -1.38310
C          4.90597        3.00480       -0.74078
O          5.31540        2.00193       -0.12305
C          5.74141        4.28609       -0.80160
C          7.21392        3.98139       -1.16603
C          8.10909        5.22170       -1.25988
C          8.57990        5.66248        0.12355
N          9.21654        4.53010        0.79528
C          8.71928        3.27773        0.70125
N          9.19543        2.28823        1.48926
C         10.10295        2.55859        2.61466
C          9.39273        3.00751        3.90042
C         10.37275        3.00181        5.08327
S          9.60218        2.68611        6.69171
C          9.39737        0.90071        6.64678
S          9.84404       -0.03174        5.32794
N          8.85580        0.39724        7.77872
C          8.68853       -1.04727        7.99270
C          9.56658       -1.48217        9.16716
O          9.26003       -0.74240       10.34918
C          9.43970        0.65295       10.14367
C          8.56198        1.16589        8.99504
C          8.72841        0.90654        1.30556
C          7.44059        0.57933        2.07946
O          6.95724       -0.63371        1.52729
C          5.60676       -0.88958        1.83789
C          5.14332       -2.15183        1.11336
C          4.92060       -2.09809       -0.44302
C          6.10393       -1.85311       -1.45215
C          7.25974       -2.90104       -1.43782
F          7.98462       -2.73770       -2.58139
F          8.08342       -2.66683       -0.37999
F          5.52850       -1.90838       -2.69032
F          6.60914       -0.59948       -1.29320
F          4.37540       -3.29863       -0.79921
F          3.99627       -1.12107       -0.68408
F          5.97248       -3.20369        1.38098
F          3.90691       -2.45687        1.62949
N          7.76957        3.01271       -0.20954
H         -1.73302        0.73913       -2.02838
H         -1.20684        2.26286       -2.76633
H         -1.40585        2.15043       -1.00592
H          0.68351        0.56716       -2.64270
H          0.49443        0.48519       -0.89420
H          1.06736        2.95207       -0.73578
H          1.27991        2.99033       -2.49187
H          3.10399        1.21297       -2.25992
H          2.94180        1.31139       -0.50453
H          3.45966        3.86104       -1.89203
H          5.68675        4.76887        0.18755
H          5.33282        4.99326       -1.53815
H          7.21526        3.48060       -2.14808
H          7.56672        6.03737       -1.75595
H          8.98737        4.98848       -1.87848
H          7.74273        6.04520        0.73197
H          9.32119        6.46642        0.04442
H         10.00400        4.69622        1.40689
H         10.89392        3.26250        2.30707
H         10.61749        1.61109        2.82331
H          8.58588        2.29331        4.10524
H          8.92932        3.99880        3.78182
H         10.87679        3.97027        5.21444
H         11.13828        2.22277        4.95246
H          8.96503       -1.56952        7.07014
H          7.62812       -1.24038        8.22245
H         10.63311       -1.35396        8.89918
H          9.38701       -2.53833        9.40736
H         10.50123        0.87942        9.92214
H          9.16105        1.14686       11.08391
H          8.73643        2.23541        8.83068
H          7.49732        1.02521        9.24267
H          9.53887        0.24001        1.62473
H          8.55553        0.71864        0.23756
H          6.69697        1.38760        1.94931
H          7.64684        0.46432        3.15988
H          4.95556       -0.04999        1.53539
H          5.45886       -1.09067        2.91566
H          6.87997       -3.93323       -1.39169
H          7.08701        2.25450       -0.02831
