73

C          7.08783       -1.01044        1.96830
C          6.89828       -2.47974        1.64062
O          5.55215       -2.93370        2.00108
C          5.37695       -3.37189        3.26381
O          6.23159       -3.41409        4.12237
C          3.90120       -3.76470        3.49350
N          3.36968       -4.52413        2.34219
C          4.08116       -5.54579        1.81092
N          3.78651       -6.01334        0.57953
N          5.07720       -6.08945        2.51940
C          6.19009       -6.88970        2.01959
C          7.35635       -6.73700        3.01386
O          6.74506       -6.91607        4.29373
C          7.49447       -6.42822        5.42949
C          6.52229       -6.18746        6.55447
C          5.65046       -7.20666        6.96985
C          4.71408       -6.96661        7.97676
C          4.65162       -5.71204        8.59285
C          5.52987       -4.70004        8.19796
C          6.45499       -4.93521        7.17704
C          8.47763       -7.73061        2.72958
C          1.98803       -4.21879        1.92146
C          1.78506       -2.80527        1.36106
C          2.37139       -2.54277       -0.02884
S          1.32165       -3.29718       -1.31262
C          2.47014       -4.06517       -2.44597
S          4.10479       -4.27838       -2.09542
N          1.89760       -4.46436       -3.59833
C          0.46705       -4.34650       -3.92115
C         -0.14204       -5.75009       -4.01217
O          0.53789       -6.54184       -4.97825
C          1.92647       -6.65464       -4.67764
C          2.60382       -5.28298       -4.59527
C          3.63969       -4.39065        4.86624
H          8.07844       -0.68516        1.62138
H          7.03362       -0.83303        3.04982
H          6.33320       -0.39361        1.46321
H          7.62635       -3.11145        2.16705
H          6.95368       -2.66978        0.56130
H          3.36628       -2.80199        3.46354
H          3.65560       -5.34662       -0.20942
H          4.25844       -6.86610        0.29920
H          5.10106       -6.00290        3.53863
H          6.49327       -6.53918        1.02310
H          5.90913       -7.95510        1.95317
H          7.74192       -5.69995        2.94998
H          8.00466       -5.48871        5.15901
H          8.25848       -7.17470        5.71005
H          5.70025       -8.18877        6.49649
H          4.03848       -7.76328        8.29099
H          3.92460       -5.52911        9.38497
H          5.49249       -3.72303        8.68171
H          7.12153       -4.13557        6.85054
H          8.11711       -8.76319        2.83620
H          9.31609       -7.58420        3.42193
H          8.86759       -7.59748        1.71009
H          1.33952       -4.34994        2.80259
H          1.68521       -4.97401        1.18596
H          2.20730       -2.05642        2.04965
H          0.70179       -2.60837        1.36276
H          3.38828       -2.94670       -0.15656
H          2.40792       -1.46579       -0.23570
H          0.38216       -3.83703       -4.89400
H         -0.05129       -3.73832       -3.17127
H         -1.18890       -5.68906       -4.33729
H         -0.10579       -6.23423       -3.01599
H          2.37186       -7.24878       -5.48604
H          2.06868       -7.19336       -3.72000
H          2.53970       -4.76699       -5.56588
H          3.65454       -5.37094       -4.29897
H          4.19223       -5.32089        5.05009
H          2.56890       -4.59834        4.98595
H          3.94456       -3.69261        5.65396
