87

C          5.30214        1.51054        7.32095
C          6.08557        1.26521        6.02896
C          6.68134        2.54489        5.43219
C          7.46750        2.31945        4.13697
C          8.06269        3.60607        3.55599
C          8.84909        3.39511        2.25850
C          9.43208        4.69044        1.68401
C         10.21849        4.48655        0.38541
C         10.76902        5.78898       -0.20581
C         11.55458        5.57404       -1.50290
C         12.04032        6.87925       -2.14522
C         12.81244        6.60940       -3.44313
C         13.17871        7.80597       -4.25715
N         13.98418        7.76186       -5.30206
C         14.47374        6.51462       -5.88563
C         13.38206        5.87770       -6.76609
O         12.35719        6.45233       -7.07310
O         13.75465        4.64413       -7.10349
C         12.86734        3.89463       -8.01285
C         13.31060        4.06524       -9.45602
C         12.48387        3.19210      -10.40977
C         12.95753        3.28991      -11.86388
C         12.15606        2.40904      -12.82835
C         12.64780        2.50076      -14.27470
C         14.24881        9.06053       -5.98402
C         13.16847       10.03463       -5.48888
S         12.52580        9.35124       -3.91225
C         15.66813        9.56234       -5.69591
O         16.58604        8.65776       -6.26236
C         17.95685        9.09064       -6.14154
C         18.85305        8.09307       -6.85290
C         20.33525        8.48461       -6.77771
C         21.25046        7.49383       -7.50064
H          4.88908        0.57678        7.72652
H          4.46126        2.20008        7.15344
H          5.94224        1.95497        8.09776
H          5.42759        0.78834        5.28271
H          6.89675        0.54233        6.22053
H          7.34012        3.02110        6.18000
H          5.86928        3.26953        5.24380
H          6.80817        1.84968        3.38581
H          8.27808        1.59272        4.32258
H          8.72145        4.07405        4.30862
H          7.25076        4.33235        3.37467
H          8.19239        2.92528        1.50516
H          9.66577        2.67390        2.43819
H         10.08720        5.16190        2.43740
H          8.61321        5.40920        1.50464
H          9.56897        3.99636       -0.36099
H         11.05170        3.78549        0.56780
H         11.41536        6.28751        0.53708
H          9.93280        6.48399       -0.39654
H         10.92070        5.03383       -2.22781
H         12.41936        4.91719       -1.30475
H         12.67914        7.43327       -1.43872
H         11.16832        7.51980       -2.35901
H         12.20135        5.96593       -4.10478
H         13.72777        6.03095       -3.23198
H         14.78521        5.81511       -5.10042
H         15.36259        6.74493       -6.48619
H         11.83823        4.23973       -7.84939
H         12.96920        2.85614       -7.67400
H         14.37676        3.79911       -9.53559
H         13.21754        5.12492       -9.74392
H         11.42067        3.48052      -10.34813
H         12.53503        2.13965      -10.08121
H         14.02437        3.01034      -11.91711
H         12.90300        4.34110      -12.19709
H         11.09122        2.69279      -12.78027
H         12.20502        1.36121      -12.48729
H         12.57583        3.52944      -14.65779
H         12.05659        1.85749      -14.94008
H         13.69919        2.18861      -14.36015
H         14.14073        8.88704       -7.06420
H         12.32199       10.11167       -6.18090
H         13.57111       11.03599       -5.29628
H         15.82207        9.67128       -4.60213
H         15.76572       10.56946       -6.14914
H         18.21997        9.17095       -5.06984
H         18.05477       10.09779       -6.58920
H         18.53774        8.01848       -7.90635
H         18.70705        7.09570       -6.40575
H         20.63972        8.56511       -5.72099
H         20.46844        9.49024       -7.21009
H         21.17133        6.48562       -7.06844
H         22.30144        7.80289       -7.43023
H         20.99723        7.41934       -8.56818
