42

O          2.81356       -1.24648        0.33665
C          3.43427       -1.01334       -0.94926
C          2.45429       -0.31540       -1.90150
C          1.99053        1.09891       -1.47377
C          0.75213        1.13749       -0.57450
N          1.02273        0.69609        0.80324
C          0.24092        1.20027        1.71479
S         -0.81956        2.41703        1.20544
C          0.04465        2.52877       -0.46554
C          1.00987        3.69639       -0.44797
C          1.46515        4.38401        0.60135
C         -1.00251        2.74629       -1.60360
C         -1.93239        1.59396       -1.89691
C         -3.15275        1.45643       -1.22354
C         -3.97853        0.36064       -1.48970
C         -3.59543       -0.60162       -2.42388
C         -2.38518       -0.48111       -3.12690
C         -1.57105        0.62576       -2.84911
C         -1.98794       -1.49407       -4.16900
O          3.05006       -0.27172       -3.19549
H          3.35906       -1.86612        0.84529
H          3.72282       -1.97199       -1.40275
H          4.34003       -0.39141       -0.82402
H          1.56664       -0.95829       -2.02580
H          1.72429        1.60831       -2.41127
H          2.81650        1.67020       -1.02055
H          0.00381        0.42760       -0.97569
H          1.71306       -0.07528        0.94389
H          0.26109        0.84652        2.74689
H          1.34586        3.98584       -1.44892
H          1.15731        4.17834        1.62690
H          2.15996        5.21055        0.45777
H         -0.41930        2.98673       -2.50674
H         -1.56758        3.65965       -1.36578
H         -3.47384        2.21366       -0.50544
H         -4.93234        0.26242       -0.97011
H         -4.25081       -1.45139       -2.62386
H         -0.64048        0.74595       -3.41246
H         -2.61854       -1.39994       -5.06581
H         -2.11311       -2.52041       -3.79697
H         -0.94422       -1.36623       -4.48296
H          3.88537        0.22470       -3.15312
