96

C          2.73699        0.66855        1.88304
C          3.94425        1.03808        1.01762
C          4.22833        0.01196       -0.08412
C          5.39077        0.39241       -1.00667
C          5.61700       -0.63083       -2.12226
C          6.70955       -0.25566       -3.12919
C          6.80851       -1.28146       -4.26035
C          7.79226       -0.89551       -5.37387
N          7.70979       -1.83625       -6.50708
C          6.78702       -1.72154       -7.48338
S          6.53092       -2.88581       -8.66993
S          5.87340       -0.17303       -7.43554
C          4.38389       -0.61572       -8.36584
C          3.45004       -1.48882       -7.51755
C          2.32443       -2.12842       -8.35307
C          1.72233       -3.49204       -7.94911
N          1.02198       -3.55826       -6.66965
C          1.68210       -3.14677       -5.41883
C          1.00486       -1.91770       -4.79376
C          1.74763       -1.45670       -3.55061
Br         0.95910        0.17751       -2.80477
C          0.20479       -4.75618       -6.57934
C          1.01417       -6.04740       -6.76313
N          1.78439       -5.97495       -8.05794
C          2.65643       -4.71254       -8.21116
C          3.91688       -4.89494       -7.36407
C          4.75293       -6.12482       -7.66228
O          4.05878       -7.35318       -8.07385
C          4.96884       -6.68489       -9.00081
C          8.58057       -3.02100       -6.42749
C          9.87834       -2.88872       -7.23031
C         10.72504       -4.16083       -7.11962
C         11.99253       -4.13932       -7.97945
C         12.83830       -5.40875       -7.83153
C         14.08675       -5.43086       -8.71877
C         14.93806       -6.69372       -8.54221
C         16.17702       -6.72346       -9.44048
H          2.55443        1.42041        2.66286
H          2.88497       -0.29947        2.38513
H          1.82225        0.58997        1.27624
H          4.83842        1.15008        1.65368
H          3.77652        2.02552        0.55517
H          3.31631       -0.12003       -0.69278
H          4.43222       -0.97109        0.37723
H          6.31552        0.50890       -0.41569
H          5.18945        1.38057       -1.45567
H          4.66790       -0.76669       -2.67141
H          5.84987       -1.61462       -1.67749
H          7.68020       -0.15845       -2.61431
H          6.48659        0.73709       -3.55667
H          5.81306       -1.40063       -4.72007
H          7.08720       -2.26749       -3.85280
H          8.83093       -0.90855       -5.01444
H          7.60137        0.12653       -5.72790
H          4.70691       -1.14067       -9.27689
H          3.93027        0.34590       -8.64609
H          3.03644       -0.88279       -6.69961
H          4.07908       -2.25462       -7.04981
H          2.69500       -2.26386       -9.38254
H          1.48165       -1.42642       -8.42982
H          0.91637       -3.63427       -8.69883
H          2.74061       -2.92153       -5.59852
H          1.67481       -3.98223       -4.69590
H         -0.04219       -2.15126       -4.55000
H          0.97872       -1.10998       -5.53956
H          2.79379       -1.20277       -3.76337
H          1.71888       -2.19295       -2.73846
H         -0.58739       -4.71252       -7.34924
H         -0.30767       -4.78831       -5.60866
H          0.37913       -6.94217       -6.81179
H          1.74745       -6.18941       -5.95928
H          1.12302       -6.01584       -8.84326
H          2.47082       -6.77966       -8.14166
H          2.93091       -4.70087       -9.27785
H          3.67996       -4.87932       -6.29062
H          4.58944       -4.03934       -7.55922
H          5.53356       -6.31806       -6.92078
H          4.49432       -6.23552       -9.87702
H          5.88183       -7.24728       -9.20433
H          8.00470       -3.88235       -6.79380
H          8.80251       -3.18108       -5.36180
H         10.45078       -2.01657       -6.87426
H          9.62335       -2.69603       -8.28397
H         10.10775       -5.02887       -7.41290
H         11.00153       -4.33019       -6.06403
H         12.60259       -3.25875       -7.71375
H         11.71117       -4.00415       -9.03821
H         12.21321       -6.28936       -8.06420
H         13.13912       -5.52369       -6.77521
H         14.70570       -4.54172       -8.50339
H         13.78532       -5.33753       -9.77729
H         14.31486       -7.58164       -8.74483
H         15.24546       -6.77776       -7.48592
H         15.89945       -6.69152      -10.50486
H         16.76912       -7.63462       -9.27988
H         16.83322       -5.86192       -9.24640
