76

C          0.73090        0.43555        0.10558
C          2.24140        0.51261       -0.12717
C          2.81859       -0.73857       -0.80066
C          4.32356       -0.63876       -1.06822
C          4.92367       -1.89816       -1.70643
C          6.41908       -1.73466       -2.00923
C          7.04586       -3.01483       -2.57102
S          8.79961       -2.62295       -2.94183
C          9.43823       -4.10255       -3.51148
N         10.67291       -4.26112       -3.98485
N         10.79138       -5.56439       -4.31986
C          9.64208       -6.15743       -4.05280
O          8.72992       -5.27591       -3.52127
C          9.40320       -7.54818       -4.32144
C         10.47752       -8.29050       -4.88183
C         10.30710       -9.61917       -5.15854
C          9.05183      -10.22234       -4.86956
N          8.05845       -9.52647       -4.33804
N          8.24303       -8.22007       -4.06866
C          7.02201       -7.58565       -3.53141
C          6.18254       -6.90905       -4.60855
O          6.87702       -6.18654       -5.62783
C          6.11550       -7.35847       -6.00519
C          8.76136      -11.65832       -5.19401
C          8.24121      -11.75960       -6.64494
C          7.99148      -13.18626       -7.15507
C          9.12860      -13.84941       -8.02539
C         10.56548      -14.11379       -7.42385
C         10.81400      -15.09641       -6.20858
C         10.38091      -16.61761       -6.25425
C         10.92829      -17.60770       -7.36024
C         12.47698      -17.88745       -7.53202
C         13.29291      -18.44753       -6.30852
F         12.68186      -19.51442       -5.76903
F         14.50901      -18.81386       -6.74610
F         13.44873      -17.50381       -5.36104
F         12.56026      -18.81178       -8.52147
F         13.08602      -16.74853       -7.95240
F         10.32527      -18.79407       -7.09790
F         10.49240      -17.16396       -8.56822
F         10.72272      -17.12510       -5.04098
F          9.02801      -16.64884       -6.35774
F         12.14522      -15.03747       -5.96196
F         10.17033      -14.57084       -5.12321
F         11.34612      -14.51335       -8.44883
F         11.04088      -12.89360       -6.99000
F          8.65552      -15.01065       -8.52689
F          9.34939      -12.99031       -9.06907
F          7.65975      -14.03233       -6.13419
F          6.91411      -13.14231       -8.00425
H          0.35496        1.34407        0.59476
H          0.46670       -0.41890        0.74625
H          0.18520        0.31975       -0.84260
H          2.75615        0.67439        0.83500
H          2.47418        1.39591       -0.74548
H          2.28848       -0.91838       -1.75252
H          2.61375       -1.62018       -0.16785
H          4.85103       -0.42861       -0.12170
H          4.51995        0.22805       -1.72267
H          4.38314       -2.13499       -2.63891
H          4.77312       -2.75887       -1.03194
H          6.95207       -1.44311       -1.08967
H          6.55860       -0.91070       -2.72792
H          6.56217       -3.33630       -3.50425
H          7.01507       -3.83276       -1.83847
H         11.40891       -7.75919       -5.07120
H         11.11285      -10.21493       -5.58835
H          7.31108       -6.86292       -2.76125
H          6.44698       -8.39514       -3.06694
H          5.31185       -6.39428       -4.18402
H          6.71328       -8.21037       -6.34023
H          5.21328       -7.15707       -6.58779
H          8.00393      -12.04098       -4.49983
H          9.67614      -12.24589       -5.05775
H          8.91580      -11.25388       -7.34920
H          7.26853      -11.25161       -6.71122
