56

N          0.49722       -0.08421        0.13732
C          1.95163       -0.21005        0.20926
C          2.54799       -0.28855       -1.20212
C          4.07704       -0.31790       -1.18928
C          4.68427       -0.39210       -2.61391
C          6.18020       -0.37197       -2.55215
C          6.85807        0.87080       -2.36009
C          8.22250        0.93650       -2.22097
C          8.98848       -0.26202       -2.26872
C          8.32426       -1.52478       -2.47345
C          6.92518       -1.54700       -2.61123
C          9.13571       -2.69211       -2.51546
C         10.48936       -2.61514       -2.36194
N         11.09336       -1.38381       -2.16337
C         10.37412       -0.24206       -2.11784
C         12.57517       -1.33431       -2.01730
C         13.38210       -1.48847       -3.37594
C         13.11532       -0.48762       -4.57435
C         13.37930        1.07004       -4.45631
C         14.78938        1.65857       -4.04769
C         16.08979        1.36084       -4.89653
C         16.19565        1.77976       -6.41921
C         16.00330        3.29364       -6.80647
F         16.76218        4.08695       -6.03396
F         16.36410        3.45077       -8.08840
F         14.71271        3.65862       -6.67707
F         17.44716        1.42383       -6.79658
F         15.30142        1.04770       -7.13391
F         17.09504        1.97151       -4.22592
F         16.30265        0.01717       -4.85933
F         14.61880        3.00207       -3.99358
F         15.05176        1.21567       -2.78766
F         13.01623        1.58870       -5.64747
F         12.50493        1.54600       -3.51133
F         13.82121       -0.96250       -5.61838
F         11.78121       -0.59988       -4.87057
F         14.68707       -1.48513       -3.05076
F         13.05800       -2.72009       -3.86408
F         12.91011       -0.18903       -1.40394
F         12.93590       -2.37102       -1.23504
H          0.10268        0.18153        1.03839
H          0.05923       -0.96513       -0.13344
H          2.30498       -1.07915        0.80219
H          2.33922        0.68952        0.71393
H          2.18485        0.57537       -1.78067
H          2.16323       -1.18825       -1.71276
H          4.44000       -1.17952       -0.60428
H          4.46116        0.58166       -0.67974
H          4.32431        0.46524       -3.20390
H          4.33585       -1.30580       -3.11644
H          6.26699        1.78729       -2.32533
H          8.72588        1.89346       -2.07766
H          6.41956       -2.50216       -2.76457
H          8.68357       -3.67251       -2.66339
H         11.14795       -3.47765       -2.37208
H         10.92736        0.67920       -1.95812
