80

C          3.16073       10.83513        1.07639
C          4.62502       11.28108        1.05763
C          5.55937       10.34740        1.83615
C          7.01471       10.82527        1.86426
C          7.95955        9.90217        2.64164
C          9.39178       10.43891        2.73198
C         10.34676        9.53987        3.52466
C         11.76034       10.12236        3.63591
C         12.71631        9.30276        4.49836
O         12.87330        7.93262        4.07385
C         13.56225        7.75709        2.85127
C         13.83416        6.25128        2.76306
O         14.43975        5.83719        1.56150
C         13.47866        5.55001        0.54479
N         12.62034        4.45786        0.95721
C         12.13057        4.52599        2.21271
N         11.22239        3.62105        2.64023
C         10.87694        3.47020        4.07136
C         12.14637        3.46159        4.95570
O         12.36229        4.26483        5.83869
O         12.93539        2.43040        4.61066
C         14.20198        2.28737        5.34126
C         15.31231        3.06291        4.65729
C          9.82092        4.46538        4.55355
C         10.53970        2.73989        1.67613
C         11.29305        1.44864        1.34975
C         10.42519        0.48211        0.50925
N         11.33167       -0.45155       -0.15238
C         10.89068       -1.02695       -1.42815
C         12.05487       -1.71925       -2.13817
O         13.10197       -0.81390       -2.49155
O         12.46289        1.75984        0.59118
N         12.56374        5.52674        2.99016
H          2.52310       11.52484        0.50693
H          2.76936       10.79344        2.10365
H          3.04063        9.83356        0.63654
H          4.70363       12.29902        1.47535
H          4.97536       11.35705        0.01428
H          5.51052        9.33400        1.39854
H          5.19034       10.24578        2.87224
H          7.05296       11.83541        2.30819
H          7.38404       10.93881        0.82972
H          7.96764        8.90258        2.17062
H          7.56379        9.75237        3.66168
H          9.37211       11.44002        3.19646
H          9.79194       10.59022        1.71378
H         10.39084        8.54170        3.05416
H          9.94137        9.37675        4.53871
H         11.71290       11.12826        4.08554
H         12.18743       10.27558        2.62987
H         12.33536        9.21923        5.52594
H         13.71174        9.78051        4.54027
H         14.52894        8.29297        2.83959
H         12.96654        8.09211        1.98015
H         14.53154        5.96744        3.56741
H         14.03873        5.25305       -0.34662
H         12.86666        6.44060        0.32265
H         12.72795        3.50506        0.56048
H         10.46914        2.45171        4.15369
H         14.38791        1.20710        5.32431
H         14.04226        2.62020        6.37448
H         15.39212        2.79175        3.59631
H         16.27091        2.83082        5.14112
H         15.15206        4.14543        4.74302
H         10.17710        5.50376        4.55533
H          9.52411        4.22485        5.58140
H          8.93198        4.40958        3.91236
H         10.36843        3.30360        0.74720
H          9.55605        2.49854        2.10351
H         11.59391        0.95608        2.29584
H          9.90608        1.05380       -0.27680
H          9.65172        0.00671        1.14005
H         11.61746       -1.19630        0.48613
H         10.51913       -0.20259       -2.05709
H         10.05865       -1.74925       -1.31015
H         11.67157       -2.26303       -3.01696
H         12.50703       -2.47012       -1.46886
H         12.94523       -0.49608       -3.39285
H         12.55179        0.96000       -0.00523
H         12.08607        5.78688        3.85029
