61

O          8.88069        2.15222       -1.37285
C          8.53543        1.04628       -0.95290
N          8.55107        0.65982        0.35259
C          8.98214        1.37264        1.50367
C          9.57043        2.64544        1.44725
C          9.96849        3.26064        2.63628
C          9.78998        2.63190        3.87016
C          9.20321        1.36413        3.91751
C          8.80061        0.73534        2.74176
C          8.05734       -0.04605       -1.93073
C          7.80694        0.51853       -3.32738
S          6.14028        1.26289       -3.50917
C          6.25164        2.96871       -2.86807
C          4.85546        3.60370       -2.92389
C          4.86645        5.08087       -3.35007
S          5.83337        5.49399       -4.83540
C          4.80402        4.89147       -6.17589
S          3.36548        4.07927       -5.96510
N          5.35073        5.16412       -7.39327
C          6.50895        6.01599       -7.56409
C          7.72121        5.45452       -7.98148
C          8.82815        6.27979       -8.18430
C          8.72360        7.65806       -7.97421
C          7.50675        8.21444       -7.56910
C          6.39324        7.39779       -7.36816
C          4.75172        4.64772       -8.60736
C          4.01083        5.50335       -9.42453
C          3.47108        5.01329      -10.61539
C          3.67760        3.68253      -10.98714
C          4.42808        2.83466      -10.16684
C          4.96855        3.31664       -8.97507
C          6.05054        1.54653       -5.29003
H          8.21888       -0.28131        0.54739
H          9.71480        3.13815        0.49032
H         10.42705        4.24870        2.58984
H         10.10706        3.12386        4.78949
H          9.05827        0.85995        4.87311
H          8.34205       -0.25581        2.78395
H          7.17842       -0.58541       -1.54482
H          8.86025       -0.79570       -2.02194
H          7.80979       -0.27794       -4.08387
H          8.55089        1.28700       -3.58022
H          6.98119        3.49429       -3.50226
H          6.67098        2.88128       -1.85939
H          4.37095        3.52169       -1.94054
H          4.20160        3.08105       -3.63909
H          5.32297        5.72138       -2.58112
H          3.83290        5.41422       -3.51648
H          7.78705        4.38079       -8.16041
H          9.77337        5.84592       -8.51200
H          9.58921        8.30155       -8.13315
H          7.42032        9.29046       -7.41643
H          5.43765        7.82158       -7.05814
H          3.85399        6.53968       -9.12529
H          2.88609        5.67495      -11.25455
H          3.25416        3.30450      -11.91769
H          4.59405        1.79703      -10.45782
H          5.55313        2.66617       -8.32334
H          5.98313        0.56453       -5.77250
H          6.93224        2.10526       -5.62554
H          5.13089        2.12409       -5.48445
