93

C          0.51696       -0.42266       -0.12516
C          2.04699       -0.38109       -0.11793
C          2.69432       -1.76069       -0.28391
C          4.22414       -1.73159       -0.21686
C          4.87951       -3.10705       -0.38100
C          6.40208       -3.07489       -0.21652
C          7.07766       -4.44120       -0.37151
C          8.59223       -4.39067       -0.14624
C          9.29195       -5.74469       -0.29744
C         10.80206       -5.67029       -0.04483
C         11.51257       -7.01982       -0.20104
C         13.00592       -6.92044        0.05765
O         13.59671       -8.22141       -0.12074
C         15.00039       -8.23642        0.05019
C         15.46750       -9.67171       -0.19301
C         14.78907      -10.67375        0.77744
C         14.40070      -11.84020       -0.07291
N         14.54748      -11.52104       -1.33617
C         15.10618      -10.18432       -1.61606
C         16.26267      -10.30681       -2.61331
C         16.82470       -8.93579       -3.00645
C         17.81017       -8.92886       -4.18151
C         19.34964       -9.09889       -3.87217
C         19.92342      -10.40806       -3.19805
C         19.77262      -11.83887       -3.85566
C         20.32870      -12.16414       -5.30032
C         21.86497      -12.02524       -5.65294
C         22.97121      -12.85264       -4.87998
C         22.87659      -14.42413       -4.86484
F         22.69286      -14.90924       -6.10364
F         24.02590      -14.91140       -4.36953
F         21.86542      -14.83921       -4.07707
F         24.14086      -12.53212       -5.48755
F         23.02222      -12.42539       -3.59206
F         21.95409      -12.35352       -6.96620
F         22.20670      -10.71832       -5.51454
F         19.96479      -13.45198       -5.54318
F         19.66855      -11.36833       -6.17858
F         20.33409      -12.70511       -2.97669
F         18.43523      -12.12206       -3.91190
F         21.23812      -10.18625       -2.98352
F         19.31617      -10.52003       -1.96845
F         20.03226       -8.88922       -5.02033
F         19.66919       -8.09911       -2.99355
F         17.44830       -9.84182       -5.13533
F         17.73815       -7.69023       -4.76894
C         13.91565      -13.12474        0.38728
C         13.85050      -14.24409       -0.47533
C         13.37805      -15.46196       -0.00491
C         12.95858      -15.58353        1.32702
C         13.02232      -14.48659        2.19209
C         13.50510      -13.26580        1.73140
H          0.08554        0.58120       -0.00945
H          0.13092       -1.04637        0.69497
H          0.13237       -0.84219       -1.06690
H          2.39816        0.07122        0.82527
H          2.40326        0.28570       -0.92148
H          2.37492       -2.20048       -1.24544
H          2.30961       -2.43856        0.49884
H          4.53438       -1.29654        0.74977
H          4.61288       -1.04757       -0.99183
H          4.62281       -3.52133       -1.37185
H          4.44923       -3.80566        0.35842
H          6.64798       -2.66073        0.77729
H          6.83431       -2.37095       -0.94952
H          6.86758       -4.84393       -1.37802
H          6.62618       -5.15529        0.33988
H          8.79406       -3.98905        0.86235
H          9.04122       -3.66955       -0.85175
H          9.10888       -6.14257       -1.31098
H          8.84013       -6.47182        0.40004
H         10.98026       -5.27564        0.97041
H         11.24973       -4.93708       -0.73789
H         11.35283       -7.41238       -1.21881
H         11.07729       -7.75649        0.49417
H         13.20935       -6.56514        1.08558
H         13.48141       -6.20709       -0.64228
H         15.28537       -7.91559        1.07132
H         15.49296       -7.54065       -0.65598
H         16.55910       -9.71694       -0.06053
H         13.86471      -10.22831        1.18860
H         15.42175      -10.97214        1.62253
H         14.27192      -12.14255       -2.09638
H         14.29176       -9.56937       -2.03722
H         15.90023      -10.81171       -3.52189
H         17.03821      -10.94700       -2.17474
H         17.31128       -8.43198       -2.16001
H         16.00310       -8.28217       -3.33742
H         14.20567      -14.18245       -1.50602
H         13.34424      -16.32492       -0.66953
H         12.58893      -16.54278        1.69081
H         12.69667      -14.58590        3.22709
H         13.54570      -12.41306        2.40883
