84

O          2.02197       -2.37193       -2.07482
C          2.38127       -2.27747       -0.69947
C          3.77683       -2.87314       -0.54413
N          4.30744       -2.57752        0.79065
C          5.61487       -3.17439        1.07528
C          6.81063       -2.42889        0.45656
C          7.05886       -0.98193        0.93711
C          6.12884        0.09929        0.35639
C          6.88931        1.41068        0.08578
N          5.83028        2.52106        0.10925
C          4.49993        1.81415        0.37194
C          4.87956        0.56452        1.15685
C          5.09474        0.82758        2.66660
C          4.67925       -0.35478        3.55229
C          4.84888       -0.10594        5.05264
C          4.40328       -1.30511        5.89703
C          4.58120       -1.09726        7.40468
C          4.10733       -2.30379        8.19960
O          4.34273       -2.03223        9.59898
C          3.87665       -2.99113       10.45855
O          3.30791       -3.99981       10.08602
C          4.16517       -2.60788       11.86236
C          3.77518       -3.38445       12.87901
C          5.81768        3.43972       -1.08944
C          7.05215        4.33027       -1.15264
C          6.95385        5.35349       -2.29343
N          8.16947        6.14585       -2.35633
C          8.10042        7.25507       -3.32788
C          9.45004        7.90278       -3.50002
C         10.28812        7.53422       -4.56005
C         11.55083        8.10371       -4.73340
C         11.99013        9.07389       -3.82982
C         11.17414        9.46417       -2.76793
C          9.91219        8.88208       -2.59904
O          9.07907        9.24433       -1.57151
O          7.99571       -3.20344        0.65215
H          1.05905       -2.30534       -2.15534
H          1.66360       -2.82034       -0.05672
H          2.39461       -1.22154       -0.36093
H          4.42801       -2.41501       -1.30553
H          3.74373       -3.95740       -0.76942
H          3.64545       -2.91148        1.49244
H          5.68820       -4.22570        0.73228
H          5.74501       -3.18472        2.17161
H          6.68860       -2.40049       -0.64012
H          8.09005       -0.76472        0.61735
H          7.07180       -0.93697        2.03804
H          5.75617       -0.26871       -0.61477
H          7.39327        1.43005       -0.88656
H          7.62579        1.64025        0.86577
H          6.02754        3.10982        0.92779
H          4.07969        1.56851       -0.61292
H          3.82994        2.51455        0.88566
H          4.09909       -0.20013        1.03846
H          4.49974        1.70658        2.96886
H          6.14597        1.09312        2.88081
H          5.25303       -1.25059        3.26993
H          3.62551       -0.59818        3.33464
H          4.27208        0.78716        5.34939
H          5.90519        0.12734        5.27352
H          4.96909       -2.19977        5.58218
H          3.34386       -1.52605        5.67849
H          4.02210       -0.20642        7.73315
H          5.64146       -0.90583        7.63614
H          4.65144       -3.21969        7.91711
H          3.03491       -2.50237        8.04762
H          4.70132       -1.67074       12.01773
H          3.23763       -4.31473       12.68816
H          3.97703       -3.11305       13.91474
H          4.90080        4.04131       -1.00507
H          5.71934        2.79286       -1.97292
H          7.95807        3.71840       -1.29162
H          7.18032        4.88092       -0.20571
H          6.11269        6.03946       -2.09585
H          6.70810        4.82974       -3.24653
H          8.96796        5.55457       -2.59766
H          7.37032        7.98584       -2.94688
H          7.74234        6.91470       -4.32152
H          9.92705        6.79001       -5.27421
H         12.18114        7.80256       -5.56957
H         12.97007        9.53624       -3.95200
H         11.51486       10.22908       -2.06495
H          9.49723        9.96625       -1.07449
H          8.05968       -3.45364        1.58912
