58

C         -1.10906       -3.91421        0.95717
C         -0.71691       -3.79303       -0.49487
C         -1.44486       -4.47913       -1.47660
C         -1.10977       -4.39477       -2.82953
C         -0.02912       -3.60608       -3.22410
C          0.70754       -2.91156       -2.26149
C          0.37878       -2.99730       -0.90367
C          1.15500       -2.25348        0.16631
N          2.42988       -1.64061       -0.24899
C          2.67448       -0.31114       -0.11064
N          3.90873        0.12102        0.20533
C          4.38114        1.51019        0.03766
O          3.33308        2.33817       -0.38892
C          2.11638        1.95222        0.24241
N          1.69988        0.63124       -0.22808
C          0.63417        0.57404       -1.25331
C          1.01859        1.25865       -2.56554
O          2.12359        0.59688       -3.15116
Si         2.71760        1.05364       -4.68050
C          4.18967       -0.07294       -4.96012
C          1.38216        0.77343       -5.97034
C          3.23452        2.85939       -4.63305
N          3.46835       -2.56949       -0.48749
C          4.29268       -2.31284       -1.66215
C          4.19242       -3.03649        0.69149
H         -1.99916       -4.54451        1.06911
H         -1.33833       -2.93682        1.41029
H         -0.30792       -4.36799        1.56295
H         -2.29178       -5.09463       -1.16688
H         -1.69095       -4.94502       -3.57007
H          0.24549       -3.53166       -4.27686
H          1.54578       -2.29037       -2.57808
H          1.39973       -2.95010        0.98642
H          0.54612       -1.46028        0.62663
H          4.57254       -0.55458        0.57115
H          5.16244        1.55909       -0.73536
H          4.79865        1.83594        1.00918
H          1.35776        2.68925       -0.03776
H          2.23588        1.93029        1.33951
H         -0.25876        1.05785       -0.83151
H          0.38447       -0.47325       -1.45188
H          1.24476        2.32738       -2.39235
H          0.12276        1.21557       -3.21368
H          3.89376       -1.13048       -5.00485
H          4.94661        0.04352       -4.17176
H          4.67317        0.17169       -5.91699
H          1.00898       -0.26003       -5.94559
H          1.78370        0.95667       -6.97755
H          0.52499        1.44924       -5.83919
H          3.97205        3.04936       -3.84048
H          2.38111        3.53307       -4.47054
H          3.69320        3.14781       -5.59002
H          3.66236       -1.97265       -2.48987
H          4.77045       -3.25914       -1.94866
H          5.09330       -1.56338       -1.50158
H          3.49859       -3.20856        1.52332
H          5.00255       -2.35893        1.04321
H          4.66735       -3.99484        0.44360
