35

F          6.90591        2.14960        0.08082
C          6.08895        1.34573       -0.74447
C          4.63225        1.52615       -0.35881
C          4.30635        1.15426        1.09076
N          4.80524        2.16258        2.06927
N          4.21431        3.34613        1.98260
C          4.63897        4.28644        2.82128
C          5.64678        4.11507        3.79349
C          6.23170        2.83340        3.86868
C          5.77419        1.87935        2.95469
C          7.26527        2.44019        4.88311
C          6.62391        1.94834        6.20635
C          7.67766        1.57437        7.24801
C          6.07527        5.24567        4.68815
C          5.39956        6.59723        4.45976
H          6.42568        0.30492       -0.61483
H          6.26380        1.65324       -1.78493
H          4.02522        0.87396       -1.00569
H          4.30198        2.55696       -0.55182
H          4.74160        0.18780        1.37625
H          3.22006        1.11192        1.23936
H          4.12592        5.24095        2.70385
H          6.18576        0.87151        2.91225
H          7.92664        3.29281        5.09477
H          7.89865        1.63990        4.47172
H          5.98024        1.08116        5.98944
H          5.95934        2.73039        6.60576
H          8.32963        0.76677        6.88682
H          7.19915        1.22981        8.17349
H          8.31470        2.43372        7.50038
H          7.16934        5.35135        4.58196
H          5.93128        4.92321        5.73361
H          5.56790        6.97428        3.44161
H          5.81772        7.33654        5.15294
H          4.31704        6.55619        4.64236
