82

O          0.53752       -0.99925        0.97175
C          1.76186       -0.94836        0.88904
N          2.56946       -2.03555        0.67715
C          2.19371       -3.39059        0.50363
C          0.97789       -3.91011        0.97511
C          0.69659       -5.26398        0.78332
C          1.60631       -6.10698        0.13955
C          2.81706       -5.58444       -0.32392
C          3.10885       -4.23292       -0.14825
C          2.50143        0.38570        1.03588
C          3.37741        0.75161       -0.18408
C          3.99129        2.12410       -0.05054
C          5.12906        2.38208        0.75821
C          5.63243        3.69684        0.83249
C          5.01623        4.72519        0.15911
N          3.92134        4.44516       -0.58248
C          3.38225        3.20318       -0.72243
C          2.19280        3.10284       -1.61847
C          2.59326        2.78711       -3.08197
C          1.39627        2.36155       -3.93828
S          0.79458        0.68936       -3.56601
C         -0.73836        1.01426       -2.66186
S         -1.24482        2.51735       -2.16780
N         -1.42321       -0.13547       -2.43720
C         -1.00453       -1.41492       -2.97517
C         -1.30252       -1.73679       -4.30487
C         -0.91883       -2.97867       -4.81109
C         -0.24832       -3.89334       -3.99284
C          0.03438       -3.56967       -2.66277
C         -0.34648       -2.32951       -2.14636
C         -2.63757       -0.13295       -1.64241
C         -2.54882       -0.20289       -0.25010
C         -3.72505       -0.24004        0.50072
C         -4.97005       -0.20918       -0.13398
C         -5.04436       -0.14442       -1.52792
C         -3.87493       -0.10850       -2.28934
C          5.81951        1.33170        1.60359
C          6.19902        0.02776        0.92691
C          5.90885       -1.19413        1.54661
C          6.26903       -2.39470        0.92482
C          6.91028       -2.37942       -0.31380
C          7.22485       -1.16425       -0.94792
C          6.86353        0.02854       -0.30833
C          7.94721       -1.14835       -2.26962
H          3.56827       -1.85797        0.59115
H          0.26511       -3.26043        1.47557
H         -0.25048       -5.66309        1.14743
H          1.37366       -7.16236       -0.00040
H          3.53552       -6.22843       -0.83200
H          4.04588       -3.81942       -0.52665
H          3.10556        0.35635        1.95619
H          1.71878        1.14008        1.18384
H          2.76303        0.69132       -1.09115
H          4.18608        0.02201       -0.31048
H          6.51230        3.91397        1.43645
H          5.34449        5.76211        0.18496
H          3.45412        5.20836       -1.07312
H          1.61756        4.04072       -1.58678
H          1.50069        2.33083       -1.25571
H          3.35995        1.99684       -3.09598
H          3.06001        3.67829       -3.53436
H          1.68300        2.34147       -4.99830
H          0.53513        3.03888       -3.80809
H         -1.82137       -1.01159       -4.93224
H         -1.14821       -3.23347       -5.84617
H          0.04668       -4.86473       -4.39105
H          0.54731       -4.28507       -2.02048
H         -0.14487       -2.06800       -1.10810
H         -1.57185       -0.22731        0.23269
H         -3.66698       -0.29289        1.58843
H         -5.88482       -0.23681        0.45875
H         -6.01392       -0.11738       -2.02536
H         -3.91744       -0.05121       -3.37696
H          5.16222        1.10886        2.46097
H          6.72044        1.78905        2.04075
H          5.40984       -1.20992        2.51798
H          6.04537       -3.34484        1.41167
H          7.18322       -3.32136       -0.79343
H          7.10234        0.97975       -0.79200
H          7.46288       -1.81374       -2.99779
H          8.98284       -1.50054       -2.15233
H          7.98504       -0.13969       -2.69936
