70

C          5.79768        8.19136      -11.27569
C          5.38556        7.51507       -9.96581
C          6.27301        6.31888       -9.60308
C          5.87872        5.63914       -8.28650
C          6.75063        4.41666       -7.96894
C          6.37304        3.77866       -6.64138
O          7.11024        2.51780       -6.44071
C          8.28806        2.58224       -5.82685
O          8.80707        3.60492       -5.39156
C          8.92319        1.19965       -5.70984
C         10.45341        1.28402       -5.58368
N         10.81244        2.10443       -4.42014
C         11.23515        1.49665       -3.34272
S         11.46316       -0.19676       -3.55518
C         11.17633       -0.06996       -5.38920
C         12.49087       -0.16837       -6.16649
C         13.21446       -1.52008       -6.03908
C         14.43512       -1.58070       -6.93084
C         15.65130       -1.01493       -6.52015
C         16.76453       -1.02890       -7.36290
C         16.67605       -1.61171       -8.63018
C         15.47081       -2.18102       -9.04840
C         14.35840       -2.16370       -8.20349
C         11.47595        2.20540       -2.02994
C         10.57423        1.50542       -0.93548
C         10.83233        2.03677        0.48188
C          9.07868        1.58059       -1.27470
C         12.97708        1.99032       -1.69148
O         13.74018        2.37669       -2.83213
C         11.19154        3.71263       -2.16849
H          5.14231        9.04028      -11.51208
H          5.74753        7.48866      -12.12090
H          6.82841        8.57240      -11.22291
H          4.33741        7.17903      -10.03838
H          5.41174        8.25077       -9.14437
H          7.32465        6.65012       -9.54038
H          6.23681        5.57803      -10.42107
H          4.81989        5.33133       -8.33591
H          5.94796        6.36983       -7.46223
H          7.81149        4.71319       -7.94163
H          6.64335        3.66577       -8.76825
H          5.32226        3.46468       -6.62214
H          6.57846        4.43962       -5.78962
H          8.65144        0.59779       -6.58731
H          8.48986        0.69576       -4.82997
H         10.86103        1.77930       -6.47860
H         10.46706        3.07384       -4.42940
H         10.51025       -0.90585       -5.64562
H         13.16334        0.65074       -5.86418
H         12.24631        0.00284       -7.22921
H         12.52006       -2.33255       -6.30732
H         13.51020       -1.68581       -4.99033
H         15.73037       -0.56628       -5.52658
H         17.70568       -0.59100       -7.02810
H         17.54636       -1.62801       -9.28689
H         15.39763       -2.64582      -10.03233
H         13.42163       -2.61875       -8.53425
H         10.86734        0.44017       -0.94463
H         10.55564        3.09551        0.58264
H         11.87570        1.92148        0.80123
H         10.21426        1.47366        1.19361
H          8.69979        2.61100       -1.22933
H          8.50350        0.99094       -0.54948
H          8.84987        1.17771       -2.27165
H         13.15004        0.92857       -1.43464
H         13.22909        2.60604       -0.81418
H         14.67184        2.45483       -2.57678
H         10.15700        3.92481       -2.47035
H         11.87786        4.17525       -2.88908
H         11.35417        4.20717       -1.20393
