77

C         12.15828       -1.94476      -12.55442
C         11.90601       -3.02409      -11.49947
C         12.21899       -2.56000      -10.07364
C         11.95101       -3.62435       -9.00492
C         12.22453       -3.13829       -7.57831
C         11.92314       -4.18330       -6.49887
C         12.14447       -3.66641       -5.07363
C         11.80007       -4.68847       -3.98516
C         11.99286       -4.13918       -2.56704
C         11.58231       -5.08974       -1.45489
O         12.45734       -6.23499       -1.45088
C         12.15377       -7.14851       -0.41842
C         13.17168       -8.28484       -0.51116
C         13.01451       -9.42640        0.55492
C         11.66709       -9.52496        1.33922
C         11.63759      -10.64104        2.38991
C         10.40933      -10.54978        3.30252
C         10.33102      -11.68358        4.32991
C          9.13530      -11.55529        5.27935
C          9.04281      -12.70224        6.28727
C         13.22469      -10.65166       -0.24962
N         13.25634      -10.42049       -1.51648
C         13.14995       -8.98479       -1.90119
C         14.27645       -8.59276       -2.86259
C         14.28404       -9.30246       -4.23230
C         13.03264       -8.99530       -5.06635
C         15.55656       -8.91798       -4.99983
H         11.92418       -2.30586      -13.56514
H         13.21009       -1.62243      -12.55129
H         11.53999       -1.05422      -12.36760
H         12.51113       -3.91675      -11.73211
H         10.85337       -3.34992      -11.55010
H         11.62015       -1.66033       -9.84687
H         13.27479       -2.24146      -10.01725
H         12.56704       -4.51685       -9.21473
H         10.90051       -3.95665       -9.07976
H         11.61937       -2.23582       -7.38304
H         13.27809       -2.81903       -7.49491
H         12.55013       -5.07724       -6.66892
H         10.87719       -4.52151       -6.60392
H         11.53495       -2.75893       -4.92091
H         13.19484       -3.34711       -4.95763
H         12.41909       -5.59130       -4.11970
H         10.75153       -5.01257       -4.10881
H         11.39354       -3.22192       -2.44512
H         13.04308       -3.84262       -2.41186
H         10.53823       -5.43207       -1.59517
H         11.64567       -4.58840       -0.47120
H         11.11909       -7.53329       -0.52851
H         12.21998       -6.65977        0.57404
H         14.17002       -7.83897       -0.38442
H         13.80848       -9.36845        1.31907
H         10.82910       -9.64205        0.63474
H         11.52642       -8.55377        1.83720
H         12.55125      -10.59122        3.00734
H         11.64637      -11.63185        1.90298
H          9.49339      -10.55100        2.68694
H         10.42396       -9.57926        3.82751
H         11.26360      -11.70895        4.92039
H         10.27719      -12.65229        3.80264
H          8.20615      -11.50748        4.68710
H          9.20394      -10.59468        5.81641
H          8.92865      -13.67123        5.77963
H          8.18326      -12.57539        6.95823
H          9.94659      -12.75877        6.91164
H         13.30711      -11.67173        0.13238
H         13.36320      -11.15482       -2.22052
H         12.17311       -8.86228       -2.39704
H         15.24049       -8.75621       -2.35174
H         14.17920       -7.50584       -3.01013
H         14.33061      -10.39867       -4.06933
H         12.95270       -7.91551       -5.26221
H         12.09840       -9.31549       -4.58180
H         13.08298       -9.50574       -6.03725
H         15.57346       -7.83749       -5.20676
H         15.60581       -9.44284       -5.96296
H         16.46450       -9.16674       -4.43260
