56

C          5.62976       -1.79195        0.83909
C          5.34427       -1.56904       -0.64300
C          4.06724       -0.74308       -0.91089
C          2.76831       -1.42793       -0.48663
O          2.54752       -2.70655       -1.08347
C          2.37431       -2.67616       -2.47951
C          1.92844       -4.07432       -2.90517
C          3.01518       -5.12146       -2.61383
C          2.54663       -6.56706       -2.77016
C          1.98678       -6.98697       -4.16996
Br         3.21978       -6.56095       -5.63597
F          1.69557       -8.29501       -4.20012
F          0.81882       -6.31227       -4.39252
Br         4.03031       -7.76425       -2.30692
F          1.51144       -6.80531       -1.88498
N          1.35438       -1.64363       -2.84726
C          0.92839       -0.74600       -1.93994
N         -0.12545        0.03113       -2.21902
N          1.58421       -0.60327       -0.76547
C          1.00248       -1.49520       -4.27596
C         -0.32784       -2.11428       -4.71190
O         -1.41739       -1.38507       -4.14953
Si        -3.05499       -1.89636       -4.28560
C         -3.98568       -0.53875       -3.39482
C         -3.50462       -2.00796       -6.09989
C         -3.23256       -3.55496       -3.42694
O          6.44534       -0.95132       -1.31182
H          4.83487       -2.36886        1.33392
H          5.73198       -0.83151        1.36949
H          6.56526       -2.35272        0.95730
H          5.23904       -2.54856       -1.13722
H          4.03678       -0.48772       -1.98111
H          4.12727        0.21395       -0.36710
H          2.77154       -1.62583        0.59350
H          3.31301       -2.39147       -2.99642
H          1.70296       -4.06402       -3.97839
H          1.00239       -4.31610       -2.36457
H          3.34712       -5.03505       -1.57082
H          3.89195       -4.96768       -3.25669
H         -0.79363       -0.29651       -2.94469
H         -0.34447        0.82164       -1.62564
H          1.04299       -0.26794        0.02502
H          1.81584       -1.95370       -4.85623
H          0.99820       -0.42113       -4.51395
H         -0.37359       -3.17562       -4.41612
H         -0.36227       -2.06732       -5.81482
H         -3.81861        0.44039       -3.86532
H         -3.69840       -0.47167       -2.33576
H         -5.06670       -0.73671       -3.42496
H         -3.34310       -1.05298       -6.61893
H         -4.56818       -2.26735       -6.20618
H         -2.93180       -2.78585       -6.62456
H         -2.93013       -3.49958       -2.37143
H         -2.64462       -4.34627       -3.91312
H         -4.28365       -3.87823       -3.45128
H          6.77903       -0.22601       -0.75836
