48

C          0.88214       -0.17746       -1.02966
C          2.39542       -0.29992       -0.83447
C          3.18951        0.75322       -1.61581
C          4.70550        0.65461       -1.40833
C          5.48253        1.69889       -2.22122
C          6.97567        1.64841       -1.95502
O          7.61690        2.64918       -2.79151
C          8.97300        2.79884       -2.55354
N          9.42249        3.87197       -3.51000
C          8.84295        5.23747       -3.14698
C          8.75778        6.17402       -4.34154
C          7.86333        5.67470       -5.48472
C          7.54709        6.79376       -6.49142
N          6.85854        7.90347       -5.82505
C         10.91869        3.89606       -3.70725
C         11.34464        2.80151       -4.67867
O         10.46436        2.92274       -5.79737
H          0.34188       -0.94692       -0.46243
H          0.60382       -0.28883       -2.08800
H          0.51355        0.80252       -0.69200
H          2.72782       -1.30591       -1.14123
H          2.63735       -0.21505        0.23837
H          2.84766        1.76082       -1.32077
H          2.96033        0.65886       -2.69170
H          5.04819       -0.35765       -1.68300
H          4.93350        0.77449       -0.33506
H          5.11524        2.70963       -1.98101
H          5.30752        1.54350       -3.29780
H          7.39897        0.65695       -2.19826
H          7.20011        1.87034       -0.89591
H          9.55234        1.88284       -2.77296
H          9.20901        3.14536       -1.52852
H          9.03068        3.60599       -4.43458
H          9.47571        5.63413       -2.34088
H          7.84331        5.02752       -2.74660
H          9.76011        6.43050       -4.72251
H          8.33086        7.11997       -3.97142
H          6.91559        5.28886       -5.06957
H          8.33244        4.84097       -6.03499
H          6.98745        6.35834       -7.33911
H          8.49029        7.18155       -6.90672
H          5.86134        7.71045       -5.72595
H          6.93614        8.76227       -6.36745
H         11.40608        3.79702       -2.72893
H         11.15912        4.88023       -4.12549
H         11.27669        1.79882       -4.22251
H         12.39727        2.97788       -4.95440
H         10.66823        2.24164       -6.45698
