62

C          0.49318        0.23420       -0.02755
C          2.01292        0.14366        0.12216
C          2.65440       -0.83384       -0.86658
C          4.17380       -0.95538       -0.71941
C          4.80264       -1.90114       -1.74662
C          6.32108       -2.04497       -1.60867
C          6.92851       -2.97445       -2.66378
C          8.45044       -3.12843       -2.54219
C          9.05307       -4.00835       -3.64313
C          8.56225       -5.47130       -3.58693
N          9.74902       -6.32983       -4.05679
C         10.77682       -5.34479       -4.59915
C         10.60450       -4.12946       -3.69037
C         11.28540       -4.30212       -2.31567
C         12.79669       -4.57175       -2.35301
C         13.63727       -3.46470       -2.99972
C         15.14567       -3.71199       -2.85220
N         15.52878       -3.75337       -1.43639
C          9.36583       -7.45587       -4.97726
C         10.54471       -8.37956       -5.27580
C         10.10412       -9.56954       -6.12587
F          9.16849      -10.31263       -5.48071
F          9.55886       -9.15536       -7.29867
F         11.15266      -10.36530       -6.40662
H          0.06077        0.95207        0.68239
H          0.01660       -0.74063        0.15357
H          0.21132        0.55726       -1.04057
H          2.26625       -0.16048        1.15160
H          2.45864        1.14288       -0.01731
H          2.41229       -0.51721       -1.89635
H          2.19572       -1.83066       -0.74119
H          4.41692       -1.30440        0.29934
H          4.63216        0.04430       -0.81599
H          4.56307       -1.54248       -2.76304
H          4.33358       -2.89721       -1.65824
H          6.56595       -2.42232       -0.60077
H          6.79380       -1.05071       -1.68616
H          6.68152       -2.59310       -3.67014
H          6.44182       -3.96367       -2.58529
H          8.70297       -3.54019       -1.55102
H          8.92143       -2.13351       -2.59477
H          8.73547       -3.59166       -4.61400
H          7.71816       -5.68067       -4.25271
H          8.30160       -5.80025       -2.57258
H         10.16655       -6.74537       -3.21396
H         10.49136       -5.13085       -5.63825
H         11.76781       -5.81142       -4.57677
H         11.02717       -3.24816       -4.19273
H         10.79063       -5.10628       -1.73782
H         11.10072       -3.38647       -1.73398
H         13.01177       -5.53123       -2.85957
H         13.15405       -4.70783       -1.32207
H         13.38484       -2.49628       -2.53239
H         13.40815       -3.35677       -4.07314
H         15.68985       -2.95209       -3.44387
H         15.39520       -4.68971       -3.29508
H         15.57865       -2.80929       -1.05034
H         16.45698       -4.15952       -1.32337
H          8.96800       -6.99650       -5.89174
H          8.55499       -8.00935       -4.48461
H         10.97653       -8.79205       -4.35100
H         11.34064       -7.86597       -5.83145
