35

N          3.89330       -1.04869        1.11027
C          2.94419       -0.31794        0.25906
C          2.87469        1.15962        0.69851
N          4.25454        1.57659        0.96973
C          4.68951        2.70206        1.55838
N          5.81057        2.66270        2.30782
C          6.73788        3.82873        2.53942
O          6.10739        4.98370        2.05612
C          4.70828        4.94160        2.28333
N          4.07678        3.90745        1.45300
C          3.31545        4.33092        0.25407
C          4.14805        4.34699       -1.02666
N          8.01494        3.70747        1.88230
N          8.71782        2.61118        2.46995
N          8.00778        3.67541        0.46864
H          4.25320       -1.87476        0.63503
H          3.45618       -1.36976        1.97518
H          1.92264       -0.72937        0.25578
H          3.31874       -0.36276       -0.77310
H          2.25552        1.27984        1.60309
H          2.42005        1.74831       -0.10836
H          4.80678        0.71835        1.15261
H          6.15715        1.76529        2.63752
H          6.93384        3.86011        3.62253
H          4.30976        5.91874        1.99681
H          4.48757        4.73986        3.34525
H          2.93743        5.33423        0.48610
H          2.42665        3.69697        0.14857
H          5.02028        5.00568       -0.92339
H          3.53774        4.71949       -1.85954
H          4.49946        3.34125       -1.29514
H          9.68532        2.91106        2.60906
H          8.75532        1.84584        1.78829
H          8.04725        4.63240        0.11803
H          7.16667        3.22209        0.09125
