81

C         -1.17431        1.22843        0.18572
C          0.32507        1.01172        0.40486
C          1.19905        2.04810       -0.31093
C          2.70158        1.83411       -0.10191
C          3.57648        2.87144       -0.81315
C          5.07793        2.64182       -0.61281
C          5.95729        3.68307       -1.31298
C          7.45647        3.44121       -1.11018
C          8.33960        4.47663       -1.81191
C          9.84408        4.21639       -1.57869
C         10.73686        5.16981       -2.29823
C         11.35629        6.30507       -1.84977
N         12.03026        6.85193       -2.92535
C         11.85303        6.09965       -4.02703
N         11.05635        5.07027       -3.65786
C         10.71431        3.95095       -4.55039
C         11.76525        2.83389       -4.48293
C         11.64714        1.89259       -5.68381
S         13.01654        0.71508       -5.78425
C         14.31295        1.70947       -6.53106
S         14.08374        3.29667       -7.02283
N         15.47270        1.03293       -6.67925
C         15.71604       -0.34565       -6.23475
C         16.90666       -0.36629       -5.26998
O         18.06823        0.20165       -5.86094
C         17.82857        1.54825       -6.26367
C         16.67524        1.64303       -7.26247
C         12.42689        6.34956       -5.37863
C         13.50732        7.44999       -5.42026
C         14.03943        7.63703       -6.82527
C         15.11541        6.86564       -7.28541
C         15.57623        7.00391       -8.59621
C         14.96783        7.91700       -9.46107
C         13.89794        8.69405       -9.00915
C         13.43691        8.55362       -7.69822
H         -1.77256        0.47493        0.71582
H         -1.43472        1.16803       -0.88153
H         -1.49196        2.21807        0.54669
H          0.60637        0.00146        0.06157
H          0.54729        1.03523        1.48529
H          0.92138        3.05953        0.03528
H          0.97446        2.02869       -1.39227
H          2.97787        0.82352       -0.45113
H          2.92535        1.84992        0.97937
H          3.31039        3.88152       -0.45537
H          3.34721        2.86399       -1.89342
H          5.34479        1.63440       -0.97787
H          5.30605        2.64102        0.46755
H          5.69661        4.69051       -0.94522
H          5.73006        3.68693       -2.39379
H          7.71772        2.43214       -1.47497
H          7.68493        3.43982       -0.03025
H          8.09605        5.49028       -1.45504
H          8.12063        4.47694       -2.89345
H         10.09425        3.18130       -1.86130
H         10.06718        4.29424       -0.50468
H         11.36999        6.75713       -0.86615
H         12.58723        7.70073       -2.90795
H         10.65064        4.35415       -5.56947
H          9.71270        3.59698       -4.27829
H         11.67611        2.27439       -3.54068
H         12.76476        3.29087       -4.50336
H         11.63814        2.45899       -6.62712
H         10.74898        1.25949       -5.63468
H         15.93497       -0.96396       -7.12050
H         14.82893       -0.75829       -5.74129
H         17.16184       -1.40179       -5.00892
H         16.63852        0.17928       -4.34338
H         18.75841        1.90538       -6.72497
H         17.60610        2.17683       -5.37891
H         16.92675        1.09532       -8.18537
H         16.44642        2.68463       -7.51481
H         11.60763        6.61331       -6.07032
H         12.85308        5.40643       -5.76581
H         14.33436        7.17617       -4.74587
H         13.09087        8.40770       -5.06547
H         15.59338        6.14582       -6.61745
H         16.41519        6.39860       -8.94081
H         15.32908        8.02592      -10.48411
H         13.42561        9.41650       -9.67565
H         12.60620        9.17167       -7.34824
