86

C          9.99461       14.67473       10.95570
C          9.74526       13.17766       11.15612
C          9.91766       12.35183        9.87567
C          9.68702       10.85134       10.08284
C          9.83551       10.01605        8.80596
C          9.61629        8.51705        9.03540
C          9.70721        7.67228        7.75930
C          9.50741        6.17482        8.02463
C          9.48702        5.30485        6.78193
O         10.79579        5.36703        6.14740
C         10.86951        4.68692        4.93860
N         12.15464        5.17990        4.33760
C         12.12027        6.67663        3.95734
O         12.32816        6.70516        2.58791
C         13.28463        5.67724        2.31467
C         12.77015        4.44016        3.09205
C         11.71380        3.63085        2.31866
C         10.61292        4.36148        1.53382
C          9.58346        3.37141        0.97594
C          8.51605        4.02552        0.09371
C          7.43488        3.04339       -0.37385
C          6.40871        3.67508       -1.31664
C         13.90729        3.55018        3.62679
C         14.83786        2.97086        2.54914
C         16.04399        2.24315        3.15585
C         17.00543        1.68798        2.09925
C         18.24065        1.00859        2.70031
C         19.22010        0.48008        1.64693
C         20.46099       -0.19125        2.24648
C         21.44720       -0.69397        1.18925
H          9.85147       15.23443       11.89014
H          9.30802       15.09858       10.20735
H         11.02083       14.86664       10.60816
H          8.72653       13.02331       11.55025
H         10.42891       12.79092       11.93094
H         10.93231       12.51451        9.47066
H          9.22198       12.72724        9.10419
H          8.67784       10.69335       10.50204
H         10.39121       10.47735       10.84677
H         10.84059       10.17813        8.37705
H          9.12013       10.37978        8.04729
H          8.62749        8.36066        9.50050
H         10.35451        8.14897        9.76903
H         10.68751        7.83726        7.28095
H          8.94756        8.01964        7.03634
H          8.54573        6.01312        8.53883
H         10.28451        5.79936        8.71008
H          8.73226        5.65992        6.05552
H          9.26456        4.25371        7.03368
H         10.04242        4.92951        4.25004
H         10.94752        3.59110        5.05928
H         12.84041        5.07927        5.09977
H         12.92687        7.16373        4.53341
H         11.14626        7.10767        4.21340
H         14.29036        5.97940        2.66187
H         13.30925        5.51836        1.23184
H         11.26274        2.89380        3.00357
H         12.28819        3.02090        1.60488
H         11.05835        4.93467        0.70545
H         10.09274        5.10888        2.15409
H          9.09409        2.84802        1.81682
H         10.10386        2.58801        0.39799
H          9.00075        4.48461       -0.78528
H          8.03968        4.85668        0.64359
H          6.92098        2.62654        0.50872
H          7.91653        2.18691       -0.87479
H          5.89908        4.52714       -0.84338
H          5.63811        2.95088       -1.61152
H          6.88565        4.04445       -2.23604
H         13.47866        2.72622        4.22186
H         14.52507        4.15315        4.31861
H         15.20273        3.77921        1.89328
H         14.28130        2.27557        1.90159
H         15.69051        1.42184        3.80288
H         16.59155        2.93782        3.81668
H         17.32929        2.50903        1.43575
H         16.46849        0.97096        1.45444
H         17.92051        0.17774        3.35308
H         18.76478        1.72446        3.35755
H         19.53673        1.31215        0.99345
H         18.69919       -0.23794        0.98931
H         20.14441       -1.03220        2.88627
H         20.97077        0.52190        2.91635
H         20.97643       -1.42875        0.51935
H         22.31829       -1.17797        1.65107
H         21.81893        0.13171        0.56448
