28

N          2.99204       -1.36088       -0.90724
C          2.49560       -0.15702       -0.22732
C          2.88650       -0.17610        1.25824
C          4.40661       -0.20741        1.44664
C          4.81919       -0.41758        2.90056
N          6.28642       -0.46905        2.99639
C          7.00308       -0.67633        4.08938
N          6.40852       -0.85667        5.30441
C          7.10832       -1.07980        6.43861
C          7.73617       -1.27651        7.45205
N          8.34854       -0.71466        4.03118
N          8.96121       -0.53756        2.78835
H          2.99122       -1.23155       -1.91829
H          2.38227       -2.15808       -0.72007
H          1.40205       -0.01604       -0.30273
H          2.95733        0.71728       -0.71221
H          2.43502       -1.06468        1.73332
H          2.44963        0.70235        1.75927
H          4.84348        0.73720        1.08062
H          4.81199       -1.02063        0.82356
H          4.39814       -1.36671        3.27522
H          4.44288        0.40466        3.53352
H          6.85264       -0.35957        2.15201
H          5.39197       -0.82509        5.35006
H          8.27915       -1.45188        8.35870
H          8.87018       -0.88080        4.89398
H          9.50688       -1.36532        2.54107
H          9.57215        0.28124        2.80842
