38

O          2.03916       -0.50611        3.68597
C          3.29855       -0.80226        3.33272
O          4.01351        0.09315        2.90649
C          3.74202       -2.25011        3.49024
C          5.20335       -2.46877        3.09091
C          5.42508       -2.31644        1.57356
N          6.80021       -1.90307        1.24596
C          7.26332       -0.62118        1.37524
N          6.57491        0.42598        1.81461
C          7.14093        1.77808        1.86396
C          7.05179        2.50499        0.51072
C          7.91873        3.75479        0.49031
F          9.23444        3.42863        0.67639
F          7.82163        4.40093       -0.68772
F          7.57708        4.61906        1.47749
N          8.55398       -0.66874        0.96272
N          8.93754       -1.92556        0.58882
C          7.87252       -2.65440        0.76955
C          7.78043       -4.13317        0.48701
C          9.10018       -4.84705        0.08782
F          9.58703       -4.30175       -1.05543
F         10.00869       -4.70035        1.08784
F          7.28939       -4.76254        1.60881
F          6.86538       -4.33793       -0.51709
H          1.56805       -1.29036        4.02329
H          3.05984       -2.89052        2.90522
H          3.59470       -2.53989        4.54303
H          5.53144       -3.46613        3.41043
H          5.82526       -1.74130        3.63203
H          4.76235       -1.55068        1.14702
H          5.22773       -3.25169        1.03931
H          5.61916        0.26958        2.19206
H          8.18486        1.72551        2.21093
H          6.58633        2.32848        2.63290
H          6.01748        2.80042        0.29119
H          7.39957        1.86383       -0.31203
H          9.22775        0.09012        0.91775
H          8.89076       -5.91868       -0.06995
