80

C          0.75035       -0.40086       -0.42587
C          2.27995       -0.42515       -0.39933
C          2.85105       -0.99810        0.90135
C          4.38144       -1.02405        0.94272
C          4.94952       -1.58787        2.24833
C          6.48009       -1.61197        2.29198
C          7.04530       -2.16181        3.60469
C          8.57573       -2.19215        3.64954
C          9.13499       -2.72714        4.97086
C         10.66523       -2.76350        5.02016
C         11.21425       -3.28029        6.35297
C         12.74463       -3.32118        6.41060
C         13.27595       -3.83168        7.75330
C         14.80499       -3.87264        7.82364
C         15.29752       -4.41145        9.18809
C         16.77875       -4.48165        9.31144
N         17.56468       -5.45327        8.79868
C         18.91002       -5.20134        9.04034
C         18.92646       -4.02489        9.73958
N         17.61495       -3.59222        9.88616
C         17.21727       -2.36145       10.59147
C         16.92932       -2.59217       12.07051
O         18.11631       -3.03303       12.68694
C         17.93972       -3.31859       14.08065
C         19.25965       -3.84494       14.62621
O         19.03662       -4.17067       15.98333
C         20.20566       -4.66174       16.62737
C         19.99325       -6.13529        8.61723
C         20.18102       -7.34096        9.56704
N         20.60003       -6.88721       10.89184
H          0.36877        0.01683       -1.36776
H          0.34793        0.20926        0.39648
H          0.33492       -1.41405       -0.31869
H          2.66847        0.59695       -0.54539
H          2.65572       -1.01629       -1.25155
H          2.46420       -2.02216        1.04793
H          2.47281       -0.40778        1.75474
H          4.76717       -0.00056        0.79034
H          4.75959       -1.61926        0.09291
H          4.56454       -2.61143        2.40178
H          4.57041       -0.99210        3.09733
H          6.86542       -0.58992        2.12968
H          6.85996       -2.21591        1.44920
H          6.65606       -3.18176        3.77061
H          6.66842       -1.55393        4.44601
H          8.96622       -1.17426        3.47438
H          8.95362       -2.80936        2.81563
H          8.74085       -3.74300        5.14929
H          8.75885       -2.10623        5.80285
H         11.06120       -1.75048        4.83068
H         11.04314       -3.39629        4.19820
H         10.81589       -4.29192        6.54437
H         10.83645       -2.64515        7.17313
H         13.14603       -2.31140        6.21711
H         13.12559       -3.96302        5.59747
H         12.87599       -4.84246        7.94513
H         12.89103       -3.19232        8.56662
H         15.21848       -2.86499        7.65475
H         15.20092       -4.50839        7.01478
H         14.88885       -5.42142        9.35186
H         14.89736       -3.79027       10.00153
H         17.20558       -6.25500        8.28830
H         19.75383       -3.47269       10.16626
H         16.33749       -1.93937       10.09059
H         18.04526       -1.65059       10.47720
H         16.11569       -3.33520       12.19780
H         16.57279       -1.63532       12.50090
H         17.14924       -4.07904       14.21817
H         17.63759       -2.40570       14.62440
H         20.04910       -3.07435       14.52289
H         19.57777       -4.73399       14.04493
H         19.93074       -4.87602       17.66652
H         21.01821       -3.91323       16.61368
H         20.56834       -5.59025       16.14944
H         20.93505       -5.57082        8.56071
H         19.79163       -6.50205        7.59800
H         20.88128       -8.04214        9.07708
H         19.22571       -7.87782        9.67487
H         21.59265       -6.64755       10.89437
H         20.48094       -7.62762       11.58260
