53

C          1.41778        0.82849        2.77918
C          2.49081        1.52516        2.39940
C          2.84882        1.78183        0.94931
C          4.22642        1.33554        0.58157
N          5.25104        2.13628        0.23984
C          6.37142        1.39382       -0.07627
C          6.03392        0.07238        0.07460
N          4.69677        0.06921        0.50523
C          3.89485       -1.12069        0.78972
O          3.08761       -1.30854       -0.34514
C          2.36501       -2.49835       -0.45362
C          2.33358       -3.44532        0.57203
C          1.61225       -4.64000        0.42104
C          1.57078       -5.65485        1.53423
C          0.92537       -4.84213       -0.78057
C          0.96019       -3.87848       -1.78973
C          1.67657       -2.68156       -1.66813
C          1.68318       -1.68118       -2.81700
C          1.02997       -0.33292       -2.45446
C          3.07714       -1.48348       -3.44477
C          6.84435       -1.12847       -0.15206
C          6.37767       -2.18429       -0.95931
C          7.18849       -3.29654       -1.18258
C          8.46515       -3.36396       -0.61639
C          8.93587       -2.31370        0.17700
C          8.13088       -1.19974        0.41216
H          1.17395        0.69708        3.83293
H          0.73708        0.37826        2.05293
H          3.15300        1.97301        3.14593
H          2.78490        2.86087        0.73295
H          2.12649        1.28273        0.28468
H          5.18553        3.14945        0.19742
H          7.29666        1.84725       -0.40847
H          3.30344       -0.93119        1.69958
H          4.59254       -1.95511        0.95858
H          2.86895       -3.27711        1.50760
H          2.41580       -5.53478        2.22458
H          1.59486       -6.67942        1.14063
H          0.64568       -5.55588        2.12274
H          0.35852       -5.76175       -0.93285
H          0.41466       -4.05876       -2.71843
H          1.04928       -2.13785       -3.59424
H          1.64652        0.23234       -1.74129
H          0.03727       -0.47916       -2.00798
H          0.90840        0.28633       -3.35413
H          3.75182       -0.93837       -2.76992
H          2.99674       -0.90178       -4.37374
H          3.54184       -2.44771       -3.69164
H          5.39851       -2.12319       -1.43576
H          6.82452       -4.10865       -1.81207
H          9.09560       -4.23502       -0.79593
H          9.93065       -2.36468        0.61975
H          8.48968       -0.38922        1.04818
