74

C          1.14997        4.80011       12.59383
C          2.60026        5.25530       12.41411
C          3.22289        4.77985       11.09675
C          4.67711        5.22159       10.90545
C          5.29624        4.73625        9.59043
C          6.75722        5.15987        9.41085
C          7.38643        4.66309        8.10479
C          8.85977        5.05760        7.96115
C          9.51198        4.53955        6.67362
C         10.99810        4.90430        6.58447
C         11.66214        4.32989        5.32942
N         13.10892        4.62520        5.28250
C         13.68353        5.74742        4.74231
N         14.97359        5.78125        4.96316
N         15.22534        4.64124        5.66610
C         14.10883        3.92206        5.87673
C         13.95096        2.64056        6.61649
C         13.88920        1.37516        5.72875
O         15.17778        1.06811        5.25657
Si        15.54159       -0.37520        4.42047
C         14.65412       -0.36956        2.76899
C         17.40145       -0.30931        4.21450
C         15.01797       -1.83817        5.47022
C         16.61588        4.32495        6.01802
C         17.32504        3.51520        4.93571
O         17.48497        4.33200        3.77599
C         17.33014        3.68026        2.53315
C         15.90160        3.79505        1.98954
F         15.53079        5.07645        1.78146
F         15.79207        3.12605        0.81886
F         14.97770        3.25470        2.85184
H          0.72963        5.15707       13.54374
H          1.07228        3.70262       12.58848
H          0.50922        5.17971       11.78421
H          3.20996        4.88855       13.25718
H          2.65076        6.35610       12.46269
H          2.61412        5.15027       10.25294
H          3.16712        3.67782       11.04625
H          5.28470        4.85433       11.75132
H          4.73360        6.32341       10.95056
H          4.69762        5.11290        8.74268
H          5.22836        3.63500        9.54105
H          7.35101        4.78672       10.26387
H          6.82761        6.26088        9.45439
H          6.81378        5.05433        7.24637
H          7.29746        3.56377        8.05269
H          9.42277        4.67395        8.83033
H          8.95243        6.15667        8.00172
H          8.97699        4.94145        5.79645
H          9.40015        3.44216        6.62402
H         11.52315        4.52971        7.47927
H         11.12304        5.99917        6.58956
H         11.22683        4.75193        4.41362
H         11.53971        3.24062        5.26874
H         13.13054        6.50755        4.20014
H         13.02997        2.70026        7.21464
H         14.78187        2.52200        7.32428
H         13.18012        1.53415        4.89384
H         13.48246        0.56368        6.35848
H         14.94321        0.49572        2.15725
H         13.56057       -0.35611        2.88332
H         14.90718       -1.27851        2.20399
H         17.72091        0.51232        3.55945
H         17.75821       -1.24365        3.75848
H         17.90749       -0.19594        5.18315
H         13.92700       -1.90247        5.58732
H         15.47206       -1.80057        6.47020
H         15.34441       -2.77287        4.99151
H         16.61899        3.76925        6.96426
H         17.10956        5.29233        6.17102
H         16.74722        2.60531        4.72708
H         18.31528        3.22539        5.33022
H         17.59243        2.61096        2.57299
H         17.99222        4.17419        1.80793
