45

C          1.28405       -0.53815       -0.39999
C          2.65385        0.00385        0.01438
C          3.11165        1.17439       -0.86646
C          4.48969        1.69298       -0.43892
N          4.95446        2.81547       -1.27367
C          4.83423        4.07266       -0.95476
S          5.35253        5.24131       -2.06593
C          5.92461        3.93330       -3.25279
C          5.54042        2.54516       -2.64930
N          6.58170        1.58112       -2.54861
C          5.36091        4.18321       -4.65675
C          5.95152        3.24931       -5.72425
C          5.34681        3.51001       -7.10825
C          6.00208        2.66109       -8.21119
N          5.35079        2.81615       -9.49723
C          4.34947        2.00001       -9.98556
C          3.89374        2.54092      -11.17267
C          4.63606        3.73219      -11.40889
C          5.52287        3.88123      -10.35945
H          0.98122       -1.37032        0.24788
H          1.29423       -0.90992       -1.43478
H          0.50726        0.23682       -0.32933
H          3.40414       -0.80208       -0.03267
H          2.62086        0.33190        1.06606
H          2.37998        1.99749       -0.81291
H          3.14367        0.84694       -1.91883
H          5.25787        0.91217       -0.52995
H          4.47893        2.03937        0.60343
H          4.40611        4.36938        0.00490
H          7.02200        4.02463       -3.26414
H          4.71763        2.10831       -3.23639
H          7.51101        1.95984       -2.38178
H          6.59630        0.89718       -3.29780
H          5.56959        5.22553       -4.94371
H          4.26320        4.08588       -4.62592
H          5.78138        2.19257       -5.45300
H          7.04648        3.38323       -5.75794
H          5.44900        4.57553       -7.36839
H          4.26637        3.29539       -7.09427
H          5.96600        1.59370       -7.94358
H          7.06563        2.92830       -8.31677
H          4.06472        1.09504       -9.45780
H          3.12603        2.11464      -11.81017
H          4.54490        4.39774      -12.26101
H          6.26866        4.64436      -10.15983
