52

C          4.63454       -1.84153       -6.41782
C          4.61892       -0.42486       -5.84096
C          5.72059       -0.18376       -4.80401
C          5.72992        1.24065       -4.24267
C          6.80856        1.47602       -3.18006
C          6.81490        2.91132       -2.64297
C          7.79413        3.16626       -1.48754
C          9.26448        2.99714       -1.82419
O          9.62308        3.97628       -2.84701
C         10.98594        4.00239       -3.11629
P         11.24329        5.25522       -4.44068
C         10.46214        4.74923       -5.99552
C         10.51684        5.74118       -7.19344
C         11.96218        5.99158       -7.68516
N         12.13346        6.86933       -8.81514
C         11.72510        8.26288       -8.64351
C         11.99076        9.03371       -9.92746
O         11.18081        8.43433      -10.94597
O          9.66730        5.23708       -8.20709
I         10.54478        7.40548       -3.70516
H          3.83006       -1.98568       -7.15145
H          4.50155       -2.59462       -5.62715
H          5.58821       -2.05668       -6.92242
H          3.63839       -0.22468       -5.37771
H          4.72270        0.30892       -6.65823
H          6.70296       -0.40575       -5.25838
H          5.60225       -0.90286       -3.97468
H          4.74148        1.46898       -3.80817
H          5.86775        1.95870       -5.07066
H          7.79366        1.22106       -3.61000
H          6.65265        0.77364       -2.34271
H          5.80403        3.16218       -2.28499
H          7.02216        3.61536       -3.46579
H          7.58127        2.47095       -0.65868
H          7.64623        4.18040       -1.08495
H          9.49026        1.99017       -2.21572
H          9.89414        3.17805       -0.93569
H         11.38782        3.04837       -3.52709
H         11.61680        4.29366       -2.25075
H         12.64611        5.32547       -4.62027
H          9.41350        4.52444       -5.74681
H         10.96217        3.79727       -6.25543
H         10.05557        6.69027       -6.87684
H         12.41041        5.01065       -7.93611
H         12.55512        6.39822       -6.84173
H         11.70220        6.49551       -9.66172
H         12.32050        8.71142       -7.83079
H         10.65284        8.38369       -8.38564
H         13.06204        8.96509      -10.18408
H         11.72562       10.09498       -9.77873
H         11.39558        8.84281      -11.79793
H         10.15059        4.58158       -8.73984
