57

C          0.61095        0.14993       -0.30793
C          2.11633        0.37528       -0.14704
C          2.77209        1.00664       -1.38068
C          4.28276        1.21297       -1.23110
C          4.94459        1.83977       -2.46311
C          6.46408        1.98141       -2.32124
C          7.13500        2.60372       -3.55460
C          8.64225        2.62292       -3.40197
O          9.22378        3.23724       -4.61213
C         10.51186        3.02311       -4.83987
O         11.26839        2.39270       -4.10867
C         10.95474        3.62782       -6.16066
C         12.46559        3.86226       -6.30359
O         12.65450        4.53572       -7.53739
C         13.58199        3.85113       -8.39559
C         13.46444        2.39627       -7.97440
N         13.27004        2.51830       -6.49180
C         12.70754        1.16323       -5.87097
O         11.83108        0.62753       -6.47221
C         13.52850        0.67667       -4.72879
C         13.04648        4.66069       -5.11990
C         14.40771        5.32129       -5.28783
C         14.76984        6.27827       -4.16691
Br        13.59685        7.85271       -4.23412
Br        15.89977        3.94756       -5.28116
H          0.17384       -0.30184        0.59290
H          0.39516       -0.52059       -1.15309
H          0.08186        1.09631       -0.49437
H          2.61136       -0.58578        0.07362
H          2.30181        1.01779        0.73039
H          2.28772        1.97553       -1.59572
H          2.57667        0.37058       -2.26212
H          4.76160        0.24097       -1.01742
H          4.48035        1.84640       -0.34861
H          4.49815        2.83016       -2.65847
H          4.71934        1.22492       -3.35191
H          6.90066        0.98567       -2.12975
H          6.69426        2.59075       -1.43034
H          6.76474        3.62893       -3.71166
H          6.87175        2.02669       -4.45554
H          9.06627        1.61492       -3.29769
H          8.96991        3.22807       -2.54378
H         10.46829        4.60082       -6.31139
H         10.59424        2.98417       -6.97722
H         14.60538        4.23841       -8.26028
H         13.26741        4.01987       -9.43230
H         14.35652        1.79321       -8.18083
H         12.57603        1.90263       -8.38603
H         14.20071        2.70076       -6.05211
H         12.95749       -0.07677       -4.17755
H         13.83093        1.49056       -4.06224
H         14.43832        0.20159       -5.13471
H         13.01044        4.05029       -4.20687
H         12.34212        5.49416       -4.95697
H         14.51725        5.80276       -6.26568
H         15.78782        6.66110       -4.27906
H         14.64286        5.83141       -3.17484
