72

C         -0.18627      -10.01416        3.89928
C          1.32275      -10.26117        3.95810
C          2.04692       -9.88735        2.66096
C          3.56415      -10.08746        2.72302
C          4.28734       -9.67602        1.43729
C          5.81191       -9.80179        1.51704
C          6.52585       -9.30414        0.25715
C          8.05439       -9.33981        0.35153
C          8.74347       -8.74794       -0.88135
C         10.26924       -8.66739       -0.76712
C         10.91515       -7.97121       -1.97105
C         12.41853       -7.69408       -1.82706
C         13.30949       -8.94058       -1.89801
C         14.79751       -8.63320       -1.67856
N         15.35138       -7.64953       -2.61766
C         15.82609       -7.90438       -3.85566
N         16.02484       -9.16372       -4.25603
C         16.69451       -9.60345       -5.46556
C         17.35567      -10.98768       -5.18224
N         16.36664      -11.79451       -4.43212
N         17.79636      -11.48624       -6.48230
N         18.47348      -10.77332       -4.27711
N         16.09153       -6.87925       -4.68486
C         16.02724       -5.46129       -4.35710
C         16.14902       -4.68160       -5.67890
N         17.24526       -5.24099       -6.47939
H         -0.67862      -10.29210        4.84134
H         -0.65504      -10.59819        3.09320
H         -0.40719       -8.95303        3.70877
H          1.51586      -11.32269        4.18844
H          1.75836       -9.68586        4.79257
H          1.83153       -8.83123        2.41881
H          1.63081      -10.47879        1.82615
H          3.78682      -11.14508        2.94918
H          3.97099       -9.50490        3.56840
H          4.02647       -8.62965        1.19818
H          3.91156      -10.28076        0.59335
H          6.08748      -10.85360        1.70885
H          6.17601       -9.22912        2.38838
H          6.20565       -8.26751        0.05098
H          6.19711       -9.89972       -0.61242
H          8.39416      -10.37860        0.50687
H          8.37318       -8.77832        1.24748
H          8.34770       -7.73222       -1.05751
H          8.47102       -9.33646       -1.77478
H         10.68071       -9.68327       -0.63897
H         10.53177       -8.11194        0.15087
H         10.40272       -7.00872       -2.13076
H         10.73610       -8.56246       -2.88578
H         12.59697       -7.17282       -0.86905
H         12.71893       -6.99283       -2.62443
H         13.17002       -9.44293       -2.86988
H         13.01345       -9.66850       -1.12687
H         15.40971       -9.54601       -1.71772
H         14.95045       -8.21218       -0.67431
H         15.14500       -6.67811       -2.41769
H         15.80618       -9.95791       -3.64434
H         17.48820       -8.90710       -5.76878
H         15.98303       -9.69621       -6.30378
H         15.72071      -12.25404       -5.07493
H         16.82532      -12.53030       -3.89302
H         17.01991      -11.67134       -7.12045
H         18.33550      -12.34725       -6.38147
H         18.84113      -11.66091       -3.92895
H         19.23474      -10.31609       -4.78120
H         16.62122       -7.03282       -5.55028
H         16.83864       -5.17934       -3.66256
H         15.06554       -5.20733       -3.88443
H         16.25156       -3.60930       -5.44536
H         15.21781       -4.80824       -6.24856
H         18.14949       -4.86228       -6.19430
H         17.12777       -5.01712       -7.46647
