59

C          0.69485       -0.11233       -0.10246
C          2.20846        0.02624        0.08033
C          2.86849       -1.24035        0.63681
C          4.38387       -1.11785        0.82801
C          5.02802       -2.38963        1.38949
C          6.54353       -2.28656        1.59454
C          7.15384       -3.57034        2.16689
C          8.66802       -3.50551        2.39854
C          9.22131       -4.80720        2.98708
C         10.72990       -4.79285        3.26682
C         11.19589       -6.09903        3.92522
C         12.69859       -6.22842        4.15769
N         13.30651       -5.06017        4.91529
C         12.75788       -4.90363        6.31857
C         12.81927       -3.46018        6.80736
C         12.40187       -3.36393        8.29292
C         13.26837       -4.14833        9.16383
C         14.00270       -4.82144        9.85067
C         14.81984       -5.10323        4.90394
C         15.35119       -4.59705        3.56921
O         14.64483       -3.37917        3.32153
H          0.24999        0.81035       -0.49925
H          0.19593       -0.33693        0.85216
H          0.44942       -0.92596       -0.80126
H          2.42275        0.87289        0.75455
H          2.67512        0.28457       -0.88537
H          2.65354       -2.08803       -0.03784
H          2.39913       -1.49975        1.60242
H          4.59972       -0.27004        1.50199
H          4.85539       -0.86340       -0.13749
H          4.81045       -3.23551        0.71393
H          4.54928       -2.64380        2.35169
H          6.76560       -1.44112        2.26935
H          7.02961       -2.04349        0.63350
H          6.92854       -4.41210        1.48899
H          6.65434       -3.81274        3.12146
H          8.90057       -2.66532        3.07674
H          9.17971       -3.28022        1.44681
H          8.99427       -5.64342        2.30408
H          8.68710       -5.03333        3.92646
H         10.95376       -3.92647        3.91817
H         11.28495       -4.62359        2.32770
H         10.92374       -6.94972        3.28032
H         10.64229       -6.26483        4.86245
H         13.23219       -6.27211        3.19901
H         12.94704       -7.13204        4.73153
H         13.07293       -4.20342        4.37922
H         13.33602       -5.57558        6.96842
H         11.72037       -5.25682        6.30114
H         12.14735       -2.83081        6.20336
H         13.83438       -3.04947        6.70169
H         11.35645       -3.69347        8.41529
H         12.42607       -2.30671        8.59818
H         14.63790       -5.39138       10.49719
H         15.13998       -6.13042        5.11721
H         15.16096       -4.44748        5.71382
H         15.18955       -5.32694        2.75755
H         16.43708       -4.43705        3.66952
H         14.94398       -2.98260        2.48859
