103

C          6.23446        5.42410       -4.37512
C          7.43043        4.60371       -3.88702
C          7.89616        4.99324       -2.48067
C          9.08538        4.17198       -1.97342
C          9.54565        4.56891       -0.56749
C         10.70654        3.72441       -0.03263
C         11.16151        4.13728        1.37077
C         12.26814        3.25050        1.95093
C         12.71463        3.67781        3.35308
C         13.75967        2.74850        3.97878
C         14.18178        3.17285        5.39034
C         15.19094        2.21104        6.03073
C         15.67596        2.61555        7.43269
C         14.54374        2.57160        8.46541
N         15.00952        2.87000        9.83981
C         15.52521        1.93077       10.70900
C         15.87255        2.58543       11.85549
N         15.55957        3.91969       11.67386
C         15.03413        4.08651       10.43407
C         14.51480        5.35854        9.80899
O         13.18038        5.24435        9.36607
C         12.19589        5.19215       10.42233
C         10.82434        5.05842        9.78370
C          9.69901        4.92342       10.81572
C          8.32143        4.74768       10.16776
C          7.18595        4.58488       11.18165
C          5.81092        4.39838       10.53285
C          4.68304        4.23063       11.55265
C         15.83037        4.96268       12.68655
C         17.33180        5.18485       12.89707
C         17.59579        6.35110       13.85767
P         19.38362        6.53992       14.16894
O         20.25969        6.44414       12.97490
O         19.40079        7.94570       14.93832
C         20.58107        8.81223       14.92678
C         20.12612       10.25366       14.84262
O         19.60100        5.37898       15.26498
C         20.90125        4.73685       15.45414
C         21.67797        5.37449       16.59040
H          5.92116        5.12125       -5.38367
H          6.47525        6.49710       -4.40951
H          5.36901        5.30169       -3.70683
H          8.27064        4.71928       -4.59221
H          7.17140        3.53149       -3.89813
H          7.05224        4.88462       -1.77642
H          8.16129        6.06536       -2.47031
H          9.92929        4.27631       -2.67771
H          8.81646        3.10093       -1.98018
H          8.69198        4.49109        0.12886
H          9.83848        5.63367       -0.56803
H         11.56075        3.78959       -0.72891
H         10.40627        2.66182       -0.02042
H         10.29247        4.12017        2.05220
H         11.50665        5.18588        1.34773
H         13.13831        3.25408        1.27184
H         11.91404        2.20521        1.98460
H         11.83100        3.72362        4.01437
H         13.11538        4.70567        3.31158
H         14.65091        2.70295        3.32958
H         13.35712        1.72116        4.01423
H         13.27568        3.25329        6.01576
H         14.61792        4.18666        5.35279
H         16.07533        2.13104        5.37969
H         14.75875        1.19630        6.07487
H         16.10551        3.63043        7.40048
H         16.48307        1.93898        7.75466
H         14.09476        1.56916        8.50433
H         13.74911        3.28974        8.23648
H         15.59383        0.88234       10.44412
H         16.30609        2.21701       12.77726
H         15.11662        5.59438        8.91766
H         14.64339        6.19363       10.51980
H         12.26854        6.11404       11.02986
H         12.39929        4.32878       11.08565
H         10.82899        4.17495        9.12449
H         10.64516        5.93229        9.13817
H          9.68453        5.81217       11.46960
H          9.90246        4.06060       11.47397
H          8.34431        3.86730        9.50184
H          8.11171        5.61441        9.51774
H          7.15822        5.46661       11.84563
H          7.39958        3.72005       11.83443
H          5.84132        3.51940        9.86708
H          5.59687        5.26334        9.88297
H          4.85244        3.35286       12.19364
H          3.71137        4.09836       11.05814
H          4.60523        5.11008       12.20868
H         15.34028        4.64501       13.61803
H         15.33882        5.88519       12.35675
H         17.81877        5.38915       11.93207
H         17.78706        4.26437       13.29297
H         17.09319        6.21061       14.82617
H         17.24345        7.30211       13.43191
H         21.21265        8.53337       14.07140
H         21.13362        8.62206       15.85913
H         19.59196       10.44473       13.90251
H         21.00221       10.91590       14.87905
H         19.46757       10.51129       15.68235
H         21.45307        4.77568       14.50401
H         20.66217        3.68943       15.68204
H         21.97491        6.40429       16.35119
H         22.59507        4.79727       16.77552
H         21.08670        5.38531       17.51531
