56

C          8.38084       -4.52179        0.76194
C          7.16446       -4.09208       -0.06165
C          7.30354       -2.67505       -0.63218
C          6.10488       -2.20864       -1.47020
N          4.83473       -2.24888       -0.71544
C          3.94753       -3.21610       -0.98103
O          4.05426       -4.04657       -1.90710
C          2.69086       -3.34999       -0.08858
N          2.02802       -4.60330       -0.57163
C          2.33418       -5.82307        0.31306
C          1.91941       -5.67620        1.74526
C          0.60176       -5.92812        2.15589
C          0.23354       -5.77185        3.49156
C          1.16591       -5.37181        4.46199
C          2.48967       -5.14121        4.04902
C          2.86190       -5.29345        2.71531
C          0.77373       -5.22554        5.90718
C          0.57546       -4.44686       -0.92997
C          0.39926       -3.55071       -2.15393
C         -1.08182       -3.38151       -2.50791
S         -1.22337       -2.17844       -3.85167
O         -0.85377       -0.87378       -3.33975
O         -0.59567       -2.74337       -5.01716
O         -2.82247       -2.19673       -4.09493
C          4.68671       -1.31634        0.40136
H          8.25277       -5.53468        1.16603
H          8.55140       -3.84317        1.61054
H          9.29498       -4.52297        0.15163
H          6.26215       -4.14767        0.57438
H          6.99562       -4.80264       -0.88700
H          8.18755       -2.62312       -1.28729
H          7.49913       -1.95977        0.18435
H          5.96906       -2.84833       -2.34950
H          6.25073       -1.17485       -1.81669
H          2.01239       -2.49824       -0.21733
H          2.92056       -3.44544        0.97928
H          2.61745       -4.75546       -1.45791
H          3.41877       -5.96985        0.22239
H          1.83584       -6.66619       -0.18360
H         -0.14221       -6.27452        1.43529
H         -0.79491       -5.98005        3.79130
H          3.24057       -4.85392        4.78726
H          3.90567       -5.14233        2.42685
H         -0.30808       -5.33596        6.04666
H          1.07347       -4.24496        6.30289
H          1.27282       -5.98690        6.52493
H          0.04758       -4.05819       -0.04789
H          0.19586       -5.45801       -1.13237
H          0.93784       -3.97705       -3.01370
H          0.82703       -2.55306       -1.97083
H         -1.67109       -2.98364       -1.66999
H         -1.54246       -4.31185       -2.86755
H         -3.17361       -1.32508       -3.82672
H          5.15423       -0.36376        0.12460
H          5.17428       -1.69051        1.31449
H          3.63124       -1.11586        0.61515
