59

C         -0.29850       -5.22312        5.45156
C          1.18209       -5.15592        5.83459
C          2.12729       -5.34447        4.64264
C          3.61067       -5.27528        5.02131
C          4.55445       -5.45438        3.82798
C          6.03841       -5.38582        4.20954
C          6.96500       -5.56445        2.99924
C          8.43157       -5.48356        3.37274
O          9.21556       -5.65535        2.14545
C         10.53306       -5.38495        2.21648
S         11.54086       -6.94101        2.90226
C         10.85860       -8.28961        1.89531
C         10.92793       -8.11533        0.37230
O         11.35221       -7.12272       -0.18938
O         10.43689       -9.21110       -0.19240
C         10.37898       -9.25031       -1.67195
C         11.68206       -9.75152       -2.27073
C         11.55739       -9.93772       -3.79055
C         12.87982      -10.34546       -4.45167
C         12.75409      -10.56265       -5.96141
C         13.21151       -6.57873        2.24366
C         14.23725       -7.59741        2.71060
F         13.91747       -8.85530        2.18950
H         -0.94596       -5.08218        6.32736
H         -0.55295       -6.19534        5.00425
H         -0.55802       -4.44472        4.71887
H          1.40153       -5.92363        6.59576
H          1.39513       -4.18608        6.31496
H          1.90860       -4.57671        3.87970
H          1.91737       -6.31570        4.16082
H          3.83010       -6.04726        5.77974
H          3.81803       -4.30607        5.50771
H          4.33866       -4.68078        3.07081
H          4.34860       -6.42240        3.33898
H          6.25790       -6.16025        4.96475
H          6.24584       -4.41665        4.69469
H          6.75254       -4.79074        2.24470
H          6.77161       -6.53692        2.51839
H          8.71686       -6.27774        4.08555
H          8.69403       -4.50679        3.81247
H         10.82736       -4.60631        2.93989
H         10.95183       -5.24820        1.21338
H          9.80914       -8.36551        2.21676
H         11.37725       -9.20305        2.21367
H         10.12076       -8.24329       -2.02461
H          9.54556       -9.93601       -1.86617
H         11.95550      -10.70741       -1.79663
H         12.48771       -9.03406       -2.04957
H         11.19627       -9.00155       -4.25037
H         10.78893      -10.69971       -4.00575
H         13.25609      -11.26573       -3.97497
H         13.63565       -9.56787       -4.25081
H         12.05427      -11.37926       -6.19206
H         13.72335      -10.82153       -6.40771
H         12.38662       -9.65784       -6.46787
H         13.45458       -5.58609        2.65415
H         13.13711       -6.52107        1.15031
H         14.27907       -7.68505        3.80645
H         15.22875       -7.30828        2.32943
