54

O          5.05137       -1.48473        1.06650
C          4.61156       -0.40583        1.87478
C          4.75936        0.92601        1.13869
O          4.41440        1.98495        2.05139
C          4.48425        3.26106        1.50206
O          5.83777        3.71089        1.28892
C          6.55124        3.95778        2.50511
C          8.00275        3.78688        2.12810
C          8.71339        4.85833        1.59960
C          9.98506        4.66943        1.06190
C         10.51502        3.38332        1.01964
C          9.81072        2.30689        1.55483
N          8.58973        2.54091        2.14521
C          7.93166        1.42212        2.81284
C          7.76233        1.40926        4.13096
C         10.32475        0.89887        1.45305
C          9.85539        0.22667        0.12024
P          9.03487       -1.38091        0.35833
O          7.83961       -1.27683        1.25304
O          8.73519       -1.92479       -1.10610
C          7.37289       -2.07442       -1.64837
C          6.85044       -3.47537       -1.41260
O         10.23991       -2.26581        0.89590
C         10.03034       -3.67957        1.25267
C         11.29925       -4.19180        1.89611
H          6.02973       -1.51477        1.12767
H          5.16357       -0.35540        2.83183
H          3.55343       -0.57988        2.11803
H          4.09383        0.95767        0.25807
H          5.79751        1.04822        0.78152
H          3.96446        3.93264        2.20365
H          4.03529        3.31343        0.49687
H          6.23475        3.26318        3.29178
H          6.39263        4.99346        2.85182
H          8.23955        5.83862        1.59745
H         10.54710        5.51324        0.66135
H         11.49121        3.19207        0.57584
H          7.65393        0.59256        2.15748
H          8.09374        2.22013        4.78117
H          7.27614        0.55171        4.59391
H         10.00806        0.31177        2.32427
H         11.42024        0.92832        1.47590
H         10.69732        0.09981       -0.57218
H          9.11077        0.84752       -0.40036
H          7.48753       -1.85231       -2.71653
H          6.71826       -1.31790       -1.19368
H          7.53175       -4.22601       -1.83431
H          5.87372       -3.58408       -1.90403
H          6.70664       -3.67546       -0.34305
H          9.78999       -4.22456        0.32806
H          9.17095       -3.73752        1.93653
H         12.15163       -4.11648        1.20890
H         11.16850       -5.24862        2.16544
H         11.53225       -3.63338        2.81207
