47

C          1.41933        0.85972       -0.94252
C          2.82355        0.28581       -0.73123
C          3.02296       -0.23778        0.68087
O          4.36866       -0.74505        0.79273
C          4.69147       -1.21859        2.07754
C          6.20106       -1.47169        2.14918
O          6.88420       -0.25057        1.94463
C          7.82879       -0.32216        0.86567
C          7.29299       -1.42790       -0.02607
N          6.70330       -2.38764        0.97319
C          5.75372       -3.34667        0.33373
C          5.39605       -4.51777        1.24321
O          5.96259       -4.76377        2.29091
O          4.40492       -5.21537        0.69163
C          3.97663       -6.43345        1.40756
C          2.84951       -7.05189        0.61399
C          6.59092       -2.06667        3.51540
C          8.02274       -2.55916        3.59791
O          8.65784       -2.99029        2.63331
O          8.49750       -2.50529        4.83285
C          9.84072       -3.03570        5.04347
H          1.30275        1.22947       -1.96869
H          1.22034        1.70069       -0.26328
H          0.64189        0.10079       -0.77422
H          3.58310        1.05802       -0.92911
H          3.00828       -0.53362       -1.44430
H          2.30359       -1.04654        0.91105
H          2.87992        0.56545        1.42712
H          4.13155       -2.14085        2.33473
H          4.46226       -0.46887        2.85827
H          8.83612       -0.54939        1.24958
H          7.84060        0.65170        0.36251
H          8.06401       -1.94454       -0.60974
H          6.48217       -1.07472       -0.67280
H          7.51470       -2.90374        1.44077
H          6.25399       -3.74994       -0.55856
H          4.86357       -2.79739        0.00416
H          3.67040       -6.13410        2.41916
H          4.85073       -7.09331        1.49196
H          1.99642       -6.36651        0.52827
H          2.50505       -7.95986        1.12691
H          3.17778       -7.33546       -0.39408
H          5.94444       -2.91811        3.77391
H          6.43407       -1.28445        4.26861
H         10.00414       -2.96263        6.12109
H         10.56974       -2.42829        4.49490
H          9.88893       -4.07690        4.70530
