29

C          0.84097       -0.45079        0.05902
O          2.29360       -0.30712        0.06387
C          2.98206       -1.30366       -0.47981
O          2.52265       -2.31920       -0.97447
C          4.48890       -1.03225       -0.42709
N          5.09871       -2.19037       -1.07134
C          6.37121       -2.51238       -1.25415
N          6.75004       -3.67559       -1.83493
C          8.20516       -3.86290       -1.72299
C          8.70412       -2.41891       -1.49629
N          7.46674       -1.78720       -0.91676
N          7.37338       -0.42086       -0.63981
C          9.13239       -1.70564       -2.74933
C         10.25282       -0.98320       -2.83242
H          0.46609        0.46213        0.52766
H          0.55210       -1.33640        0.63704
H          0.47910       -0.54235       -0.97167
H          4.80977       -0.92150        0.61817
H          4.71773       -0.09356       -0.94608
H          4.36780       -2.85344       -1.36855
H          6.12268       -4.47315       -1.85545
H          8.61409       -4.30203       -2.64049
H          8.45430       -4.51072       -0.86889
H          9.49923       -2.38051       -0.73939
H          7.78993        0.11182       -1.41158
H          7.90680       -0.22140        0.20910
H          8.46625       -1.79990       -3.61384
H         10.93635       -0.88654       -1.98552
H         10.54020       -0.47980       -3.75533
