70

C          1.82226       -0.79274        1.86010
C          3.31964       -0.57413        1.64181
C          3.63268        0.12649        0.31168
C          5.11467        0.41410        0.17833
O          5.40193        0.89973       -1.15344
C          6.79936        1.03329       -1.34691
C          7.07382        1.57810       -2.72488
C          7.42518        2.92278       -2.94252
C          7.34186        3.95674       -1.84765
C          5.89074        4.46613       -1.69361
C          5.68430        5.38984       -0.49131
S          5.71711        4.55620        1.12238
C          4.05762        3.94653        1.25578
S          2.85155        4.19938        0.17024
N          3.86967        3.22670        2.44517
C          4.84105        2.74826        3.33525
N          4.30644        2.10327        4.33625
C          2.93209        2.15809        4.12630
C          2.63790        2.82969        2.97489
C          7.77820        3.32300       -4.24122
C          7.76533        2.41578       -5.29431
C          7.35840        1.11754       -5.04950
N          7.01117        0.72095       -3.79940
C          6.46513       -0.65761       -3.67796
C          4.93197       -0.68602       -3.85685
O          4.45893       -0.10968       -5.10431
C          4.83350       -0.67689       -6.29639
O          5.63368       -1.58262       -6.39700
C          4.15581        0.01530       -7.45663
S          5.11937        1.48072       -7.99632
C          4.36791       -2.10405       -3.67132
O          4.45091       -2.45468       -2.27433
C          5.36364       -3.42656       -1.94641
O          6.07984       -3.98395       -2.74759
C          5.37770       -3.66086       -0.45451
S          6.86798       -2.89163        0.28353
H          1.63107       -1.30037        2.81484
H          1.38236       -1.40752        1.06085
H          1.28307        0.16501        1.87876
H          3.84573       -1.54407        1.67607
H          3.73035        0.01269        2.47729
H          3.06299        1.06576        0.23349
H          3.31762       -0.51299       -0.52874
H          5.70925       -0.50002        0.35074
H          5.44761        1.17044        0.91206
H          7.31621        0.06238       -1.20941
H          7.23297        1.72031       -0.60216
H          8.00841        4.79474       -2.09808
H          7.69659        3.55492       -0.88832
H          5.19493        3.61795       -1.62083
H          5.60552        5.01967       -2.60319
H          4.70982        5.89349       -0.55753
H          6.47140        6.15446       -0.41086
H          5.90369        2.89861        3.16857
H          2.23923        1.70452        4.82811
H          1.71123        3.08508        2.47789
H          8.06771        4.36048       -4.41652
H          8.04449        2.69978       -6.30729
H          7.29382        0.36256       -5.82973
H          6.69920       -1.04789       -2.68233
H          6.96508       -1.27941       -4.42617
H          4.49007       -0.03107       -3.09484
H          3.12908        0.31410       -7.22154
H          4.15882       -0.66931       -8.31191
H          4.65130        2.32273       -7.04525
H          4.89511       -2.85072       -4.27650
H          3.30073       -2.08841       -3.92843
H          5.37655       -4.73686       -0.24706
H          4.51907       -3.18799        0.03459
H          7.76245       -3.70615       -0.32676
