91

Br         1.70660        0.17478        1.62912
C          3.43095        0.07989        0.65077
C          3.29077        0.45508       -0.81173
C          2.98698        1.93334       -1.13193
C          1.49750        2.23620       -1.10089
O          0.81717        1.45524       -2.01347
C         -0.55719        1.92175       -2.03621
C         -0.40348        3.46441       -1.89340
N          1.06178        3.69480       -1.55094
C          1.87316        4.32615       -2.67090
C          3.06374        5.11958       -2.14206
C          3.96009        5.64320       -3.27383
C          5.19207        6.38102       -2.73628
C          6.12868        6.88036       -3.84163
C          7.37091        7.54052       -3.26250
O          8.19423        7.97146       -4.36567
C          9.38446        8.54848       -4.00059
O          9.72410        8.68828       -2.84145
C         10.15071        8.95179       -5.20350
C         11.35074        9.53177       -5.09020
C         -1.42227        1.28363       -0.95149
C         -1.42300       -0.24794       -0.98635
C         -2.30696       -0.86490        0.10368
C         -2.17791       -2.38929        0.19358
C         -3.10984       -3.02317        1.23223
C         -2.85909       -4.52014        1.44871
C         -3.83839       -5.16696        2.43453
C         -3.48733       -6.61477        2.79471
C         -4.50723       -7.27516        3.72921
C         -4.10011       -8.67791        4.19372
C         -5.16552       -9.36125        5.05646
C         -4.69225      -10.70325        5.63314
N         -5.71442      -11.38812        6.41184
C         -6.56400      -12.36191        5.93187
C         -7.45895      -12.68985        6.93449
C         -7.14523      -11.87927        8.06142
C         -6.06893      -11.08404        7.70901
Br         5.06229        0.03350       -1.60481
H          3.74962       -0.95901        0.76433
H          4.11433        0.74415        1.19049
H          2.59588       -0.21037       -1.33493
H          3.37387        2.14274       -2.13671
H          3.51904        2.57792       -0.41763
H          1.08735        2.16369       -0.07877
H         -0.92989        1.65314       -3.03364
H         -1.01763        3.86743       -1.07953
H         -0.63057        4.00325       -2.81772
H          1.12454        4.31600       -0.73487
H          1.18675        4.98392       -3.21989
H          2.16384        3.51178       -3.34880
H          3.67563        4.49929       -1.47082
H          2.69447        5.96760       -1.53932
H          3.38043        6.31006       -3.93352
H          4.28645        4.79534       -3.89981
H          5.74843        5.70562       -2.06316
H          4.86691        7.23217       -2.11382
H          5.60303        7.59913       -4.49030
H          6.43587        6.03969       -4.48451
H          7.94743        6.84494       -2.63200
H          7.11900        8.41271       -2.63796
H          9.68983        8.75256       -6.17181
H         11.78497        9.71812       -4.10656
H         11.92224        9.83225       -5.96764
H         -2.44727        1.67153       -1.08416
H         -1.09850        1.63051        0.04603
H         -0.38948       -0.60810       -0.86300
H         -1.75543       -0.59736       -1.97882
H         -3.36051       -0.58888       -0.07540
H         -2.04031       -0.42413        1.08085
H         -1.13131       -2.64444        0.43708
H         -2.37550       -2.83627       -0.79618
H         -4.15872       -2.86348        0.92711
H         -2.99342       -2.49755        2.19662
H         -1.82643       -4.66176        1.81408
H         -2.91111       -5.04856        0.48072
H         -4.85832       -5.12803        2.01367
H         -3.87276       -4.56574        3.36036
H         -2.48918       -6.63685        3.26717
H         -3.39691       -7.21404        1.87155
H         -5.48626       -7.32644        3.22175
H         -4.66102       -6.63399        4.61498
H         -3.15395       -8.60938        4.75970
H         -3.87962       -9.30776        3.31383
H         -6.08016       -9.53191        4.46564
H         -5.45526       -8.69982        5.88950
H         -3.81027      -10.55061        6.27541
H         -4.38175      -11.38045        4.82319
H         -6.45252      -12.74458        4.92202
H         -8.24146      -13.43904        6.86620
H         -7.64012      -11.88486        9.02741
H         -5.52062      -10.33593        8.27341
