42

Br         6.08019        0.42187       -2.96629
C          4.32005        1.32245       -2.80662
C          3.66718        1.10731       -1.44912
C          4.52580        1.46023       -0.20068
C          5.12521        2.82358       -0.29012
N          6.26430        3.04954       -0.90002
C          6.75945        4.43815       -0.95609
C          5.49306        5.30815       -0.76389
S          4.34947        4.23809        0.28958
C          4.80676        5.58450       -2.04585
N          4.85992        4.86990       -3.13301
N          3.99758        5.45360       -4.04898
C          3.47222        6.49480       -3.43833
O          3.94417        6.64088       -2.14987
S          2.33369        7.65948       -3.99767
C          2.09358        7.05552       -5.71794
C          1.05829        7.94740       -6.39683
C          7.87383        4.64610        0.08394
C          8.68174        5.93318       -0.11989
O          7.74780        7.02277       -0.00690
C          9.81878        6.05223        0.88915
H          3.71536        0.88678       -3.60759
H          4.52393        2.37527       -3.03780
H          3.36190        0.05839       -1.33037
H          2.74587        1.71281       -1.43960
H          5.33614        0.72505       -0.09495
H          3.89256        1.39485        0.69391
H          6.73907        2.27957       -1.39548
H          7.14361        4.60783       -1.97298
H          5.71421        6.22279       -0.20322
H          1.76588        6.01041       -5.66135
H          3.06754        7.09243       -6.22113
H          0.08681        7.90861       -5.88645
H          0.91013        7.59875       -7.42737
H          1.38653        8.99437       -6.44247
H          8.56724        3.79507        0.01170
H          7.44962        4.63227        1.10096
H          9.10213        5.92205       -1.14517
H          8.24093        7.85818       -0.02131
H          9.43370        6.04041        1.91824
H         10.36946        6.99183        0.73876
H         10.53933        5.23081        0.77211
