74

C          0.58251        0.66795        0.96357
C          2.10012        0.52287        0.83039
C          2.65735       -0.61540        1.69700
C          4.16093       -0.78358        1.48110
N          4.77379       -1.85727        2.30125
C          5.74505       -1.65930        3.21053
N          6.09206       -2.85748        3.68013
N          5.36152       -3.84339        3.09490
C          4.56151       -3.22634        2.24721
C          3.63425       -3.97088        1.35040
C          4.06156       -3.96870       -0.13112
O          5.38428       -4.54648       -0.25832
C          6.42898       -3.67518       -0.34501
O          6.31406       -2.46490       -0.31865
C          7.74174       -4.41579       -0.43545
S          8.63720       -4.33838        1.16361
C          3.09951       -4.81702       -0.95591
O          3.35298       -4.69620       -2.36387
C          2.95117       -3.52127       -2.93521
O          2.38254       -2.63647       -2.32500
C          3.35040       -3.46913       -4.38845
S          5.08203       -2.88124       -4.53240
C          7.09031       -3.25526        4.67453
C          8.10959       -2.16535        5.00770
O          8.02394       -1.00228        4.65922
O          9.06734       -2.71354        5.74953
C         10.11312       -1.82805        6.29930
C          9.76656       -1.42094        7.72220
C         10.93825       -0.70962        8.41363
C         10.62066       -0.30316        9.85766
C         11.81678        0.31231       10.59126
C         11.50750        0.71643       12.03666
C         12.71587        1.29346       12.78299
C         12.40170        1.69692       14.22590
H          0.21170        1.49304        0.34250
H          0.28546        0.87367        2.00205
H          0.06531       -0.24704        0.64031
H          2.59294        1.46938        1.10703
H          2.36050        0.33238       -0.22368
H          2.12638       -1.54351        1.43663
H          2.45436       -0.42093        2.76254
H          4.69660        0.13754        1.74616
H          4.40890       -1.00918        0.43509
H          6.19643       -0.71791        3.50407
H          2.61657       -3.56284        1.42233
H          3.60758       -5.00297        1.72617
H          4.08872       -2.94824       -0.53061
H          8.36167       -3.97501       -1.22429
H          7.58460       -5.48006       -0.64046
H          8.98314       -3.03223        1.06859
H          2.06579       -4.51307       -0.73600
H          3.23163       -5.88312       -0.73193
H          2.67236       -2.80935       -4.93922
H          3.34537       -4.47050       -4.83441
H          4.82768       -1.60396       -4.16085
H          7.59418       -4.14483        4.27622
H          6.56958       -3.54851        5.59848
H         10.22515       -0.96725        5.62813
H         11.01741       -2.44812        6.26105
H          9.49633       -2.32401        8.29276
H          8.87992       -0.76636        7.71130
H         11.22774        0.18417        7.83509
H         11.81874       -1.37505        8.40948
H         10.27030       -1.18957       10.41487
H          9.77805        0.40991        9.86094
H         12.17544        1.19504       10.03333
H         12.65363       -0.40801       10.58624
H         11.12579       -0.16149       12.58763
H         10.68713        1.45584       12.04325
H         13.09976        2.16777       12.23051
H         13.53212        0.55136       12.77700
H         11.61612        2.46629       14.26446
H         13.28806        2.10308       14.73185
H         12.04959        0.83634       14.81412
