61

N          3.33041        1.80449       -1.30062
C          2.69144        0.94702       -0.27957
C          3.70652        0.00883        0.37719
C          4.96079        0.68288        0.95485
N          4.71251        1.66470        2.02016
C          5.09060        1.41853        3.44015
C          4.29851        0.32147        4.16075
C          4.67440       -1.14165        3.86199
C          6.14459       -1.52066        4.10540
C          6.62273       -1.32288        5.54790
C          8.08836       -1.71439        5.76247
N          8.99021       -0.85850        4.97151
C          4.84883        2.80959        4.06607
N          4.86920        3.71354        2.91220
C          4.72697        3.00036        1.77267
N          4.64589        3.53818        0.55829
C          5.03967        5.16263        3.00871
C          3.79993        6.01162        2.71568
C          4.03982        7.49349        3.08343
N          3.07043        8.29895        2.34176
C          3.42031        9.71912        2.19242
C          2.30075       10.45994        1.48177
O          1.12251       10.30045        2.28164
O          3.50247        5.95138        1.31999
H          2.62452        2.37838       -1.76587
H          3.75359        1.23110       -2.03440
H          1.86557        0.33966       -0.68612
H          2.25122        1.61264        0.47957
H          4.05420       -0.73144       -0.36318
H          3.18937       -0.56185        1.16221
H          5.52723        1.17838        0.15182
H          5.62485       -0.08551        1.37282
H          6.16984        1.18332        3.46875
H          3.22637        0.48161        3.96359
H          4.43608        0.50344        5.23884
H          4.40099       -1.40212        2.82802
H          4.03498       -1.77468        4.49768
H          6.79957       -0.94816        3.42613
H          6.27414       -2.57938        3.82574
H          5.98984       -1.91957        6.22613
H          6.51342       -0.26808        5.84802
H          8.21346       -2.79422        5.55039
H          8.33745       -1.57304        6.82377
H          9.09922       -1.22597        4.02577
H          9.92551       -0.86197        5.37780
H          5.63183        3.07798        4.78740
H          3.86978        2.84960        4.57518
H          4.35651        4.52677        0.53444
H          4.32029        2.93253       -0.23605
H          5.84242        5.47523        2.31971
H          5.38507        5.36611        4.03241
H          2.94083        5.61893        3.29535
H          5.04654        7.78899        2.74420
H          4.00215        7.63097        4.17980
H          2.14685        8.25288        2.78079
H          4.34326        9.79965        1.59832
H          3.60412       10.20247        3.17097
H          2.15033       10.03753        0.47192
H          2.57720       11.52354        1.38132
H          0.38156       10.74523        1.84361
H          3.15257        6.87116        1.14277
