43

N          0.84822        2.20092        0.82795
C          2.21184        2.12790        1.33869
C          2.81728        0.75858        1.01143
C          4.32469        0.63957        1.28638
P          4.87506        0.91030        3.01921
Si         3.93632       -0.42876        4.68908
C          4.43612       -2.18170        4.25677
C          4.74266        0.22192        6.25267
C          2.08430       -0.14186        4.67196
C          6.70852        0.84770        3.08200
C          7.47906        1.79094        2.12631
C          7.14352        3.28603        2.31769
C          7.41021        3.86409        3.71135
C          8.98141        1.50318        2.27137
H          0.48567        3.15246        0.87110
H          0.21029        1.61370        1.36632
H          2.29716        2.32484        2.43052
H          2.80049        2.91168        0.83481
H          2.65857        0.56403       -0.05959
H          2.26889       -0.03235        1.54755
H          4.88705        1.36446        0.67705
H          4.69330       -0.36119        1.01171
H          4.53396        2.24895        3.33155
H          5.52647       -2.30795        4.21903
H          4.00951       -2.51514        3.30126
H          4.05652       -2.85713        5.03858
H          5.83301        0.09434        6.25521
H          4.34513       -0.34607        7.10780
H          4.51091        1.28117        6.42914
H          1.60556       -0.52262        3.76108
H          1.82627        0.91894        4.79139
H          1.64746       -0.68383        5.52500
H          6.98106       -0.20094        2.88015
H          6.98243        1.04493        4.13079
H          7.19646        1.52494        1.09377
H          6.09002        3.46802        2.04206
H          7.73171        3.84691        1.57547
H          6.79773        3.38865        4.49299
H          7.17441        4.93575        3.73017
H          8.46274        3.75926        4.00598
H          9.33942        1.70324        3.29099
H          9.55839        2.13380        1.58196
H          9.21084        0.45468        2.03635
