83

C          7.50780        0.91671        2.63285
C          7.10615        1.22086        1.18820
C          7.46229        0.07823        0.22538
C          7.05610        0.42120       -1.19645
O          7.47257       -0.62983       -2.14945
C          6.60230       -1.60891       -2.36821
O          5.50376       -1.72909       -1.85151
N          7.11394       -2.54098       -3.31998
C          6.35402       -3.62353       -3.67090
N          6.73334       -4.49053       -4.63252
C          5.79849       -5.63382       -4.64659
C          4.55459       -5.06040       -3.92842
N          5.16726       -3.94904       -3.16348
C          3.79564       -6.06206       -3.06214
C          2.64076       -5.46917       -2.23667
C          1.59912       -4.72098       -3.07532
S          0.12757       -4.24641       -2.13109
C         -0.96155       -5.66433       -2.41288
S         -0.50772       -6.97660       -3.33840
N         -2.17039       -5.52960       -1.81937
C         -2.51993       -4.37908       -0.97036
C         -2.18840       -4.56390        0.51755
C         -2.50250       -3.30648        1.33533
C         -2.19605       -3.47887        2.82448
C         -3.20579       -6.56021       -2.02861
C         -3.12230       -7.76776       -1.08738
C         -4.14653       -8.84073       -1.47279
C         -4.09232      -10.07181       -0.56597
C          8.40184       -2.32049       -4.04337
C          9.43821       -3.40018       -3.81188
C          9.78413       -3.82288       -2.51841
C         10.77499       -4.78417       -2.33277
C         11.46023       -5.35136       -3.42398
C         11.10863       -4.92390       -4.71153
C         10.11011       -3.96388       -4.90574
C         12.54759       -6.36916       -3.20569
H          7.24245        1.74774        3.29901
H          8.59180        0.75338        2.71915
H          7.00179        0.01471        3.00663
H          7.60171        2.14704        0.85359
H          6.02233        1.41597        1.13764
H          6.95318       -0.84576        0.54127
H          8.54659       -0.11354        0.25889
H          7.57709        1.31261       -1.56697
H          5.97160        0.55673       -1.29519
H          7.72625       -4.61517       -4.83553
H          6.22703       -6.48110       -4.08677
H          5.58529       -5.94861       -5.67394
H          3.87068       -4.61585       -4.67178
H          4.68839       -3.27961       -2.55735
H          4.50848       -6.56423       -2.38867
H          3.39223       -6.83379       -3.73751
H          3.03105       -4.81206       -1.44255
H          2.13622       -6.30203       -1.72777
H          1.23722       -5.35186       -3.90484
H          1.97853       -3.76929       -3.47857
H         -3.59823       -4.20093       -1.09693
H         -2.01287       -3.48383       -1.36323
H         -1.12166       -4.81879        0.62050
H         -2.75779       -5.41742        0.91778
H         -3.56481       -3.04007        1.20547
H         -1.92394       -2.45780        0.93307
H         -2.79111       -4.29385        3.26143
H         -2.42092       -2.56389        3.38885
H         -1.13504       -3.71934        2.98708
H         -3.11476       -6.90327       -3.06938
H         -4.17761       -6.05651       -1.91602
H         -3.28921       -7.44947       -0.04584
H         -2.10703       -8.18906       -1.14013
H         -3.96772       -9.14447       -2.51737
H         -5.16088       -8.40819       -1.45008
H         -3.09781      -10.54050       -0.59446
H         -4.82590      -10.82826       -0.87528
H         -4.30655       -9.80865        0.48037
H          8.76814       -1.34714       -3.70403
H          8.17227       -2.23015       -5.11569
H          9.28241       -3.39394       -1.64815
H         11.03207       -5.09730       -1.31885
H         11.62466       -5.34321       -5.57721
H          9.87088       -3.63376       -5.92061
H         12.21816       -7.16684       -2.52562
H         13.43170       -5.90144       -2.74668
H         12.86512       -6.82953       -4.14897
