63

C          2.79090        2.88792        0.14446
O          2.30524        1.88508        1.05536
C          3.13863        1.43855        2.02293
C          4.47085        1.83236        2.21143
C          5.20993        1.30667        3.27334
C          4.65074        0.38879        4.16668
C          3.32764       -0.01547        3.98925
C          2.59319        0.49942        2.92395
N          1.20062        0.14213        2.77030
C          0.15355        0.85849        3.35649
C         -1.01113        0.26121        2.93631
N         -0.65328       -0.77358        2.10991
C          0.68283       -0.84493        2.00761
C          1.38866       -1.85718        1.13167
C          1.90423       -3.18279        1.82873
C          0.89636       -4.05783        2.67840
C         -0.38894       -4.73726        2.04984
C         -0.30625       -5.72852        0.81874
C          0.54300       -7.06193        0.88470
C          0.23167       -8.19044        1.94935
C         -1.20686       -8.82960        1.98276
F         -1.59753       -9.19923        0.75249
F         -1.16987       -9.91030        2.77617
F         -2.10331       -7.95925        2.48605
F          1.10762       -9.18689        1.67244
F          0.50346       -7.70545        3.18915
F          0.42814       -7.61221       -0.34757
F          1.84258       -6.70923        1.07757
F         -1.59003       -6.06011        0.53481
F          0.18967       -5.02000       -0.23012
F         -1.00678       -5.36240        3.07258
F         -1.21426       -3.71604        1.63256
F          1.63276       -5.01814        3.27090
F          0.41054       -3.22560        3.65812
F          2.48057       -3.94110        0.87681
F          2.86379       -2.79467        2.71545
F          0.51854       -2.20236        0.13787
F          2.48127       -1.28549        0.56639
C          0.36596        2.12155        4.10241
C          0.09417        3.32603        3.14054
O         -0.96699        3.32928        2.53686
C          1.10662        4.39926        2.98316
C          0.79701        5.44528        2.08898
C          1.71360        6.46396        1.85453
C          2.95196        6.45603        2.51050
C          3.26732        5.42717        3.40277
C          2.35033        4.40311        3.64119
H          3.61932        2.49557       -0.46315
H          3.10490        3.79092        0.68676
H          1.94044        3.12521       -0.50123
H          4.92842        2.55215        1.53563
H          6.24449        1.62548        3.40241
H          5.23661       -0.01186        4.99221
H          2.85780       -0.72778        4.66771
H         -2.04313        0.52035        3.13588
H         -1.28587       -1.42553        1.64980
H          1.35870        2.13538        4.56156
H         -0.37897        2.20693        4.90595
H         -0.17134        5.43097        1.58863
H          1.46621        7.27069        1.16403
H          3.66939        7.25721        2.32915
H          4.22795        5.42405        3.91776
H          2.62241        3.61149        4.33860
