75

C          2.06863        0.90306       -1.29715
C          3.11535        0.57533       -0.22907
C          3.81827       -0.76617       -0.46478
C          4.84617       -1.12428        0.61363
C          5.55207       -2.45989        0.35929
C          6.56509       -2.84163        1.44397
C          7.27452       -4.16978        1.16090
C          8.28138       -4.57502        2.24389
C          9.01724       -5.87713        1.90486
C         10.02513       -6.27296        2.98549
N         10.87700       -7.44302        2.59555
C         10.49230       -8.70752        2.90527
N          9.26780       -8.95192        3.43654
C          9.02905      -10.40199        3.50896
C         10.45547      -10.95954        3.39050
N         11.21815       -9.83058        2.81374
C         12.66769       -9.97394        2.62922
C         12.99191      -10.85153        1.41280
C         14.49680      -11.11484        1.23345
S         15.34781      -10.03453        0.04921
C         15.97963       -8.71703        1.01657
S         15.88610       -8.55576        2.65962
N         16.64632       -7.78985        0.21025
C         16.52005       -7.58825       -1.17005
C         17.40614       -6.59525       -1.47619
N         18.09754       -6.17955       -0.34400
C         17.62976       -6.89426        0.64256
C         11.84980       -7.17970        1.62931
N         12.01676       -7.73073        0.46561
N         13.10747       -7.08438       -0.11069
C         13.47732       -6.14409        0.72796
O         12.71552       -6.15935        1.89026
S         14.64616       -4.90934        0.44649
C         15.28069       -4.57798        2.14452
C         16.44777       -3.60188        2.01802
H          1.58519        1.87025       -1.10401
H          1.27849        0.13782       -1.32969
H          2.52119        0.95263       -2.29863
H          2.63800        0.56587        0.76562
H          3.87050        1.37896       -0.19382
H          4.31469       -0.74720       -1.45115
H          3.06044       -1.56733       -0.52572
H          4.34637       -1.15628        1.59785
H          5.59931       -0.31982        0.68396
H          6.06253       -2.42189       -0.61915
H          4.79562       -3.25997        0.27282
H          6.05282       -2.89835        2.42031
H          7.31739       -2.03964        1.54274
H          7.79464       -4.10489        0.18949
H          6.52095       -4.96894        1.04731
H          7.76210       -4.67708        3.21257
H          9.02180       -3.76789        2.37866
H          9.54999       -5.76221        0.94684
H          8.28414       -6.68750        1.74140
H          9.55379       -6.51458        3.94741
H         10.72489       -5.44996        3.17943
H          8.49901       -8.32507        3.22057
H          8.39242      -10.72552        2.67177
H          8.54504      -10.67567        4.45304
H         10.50998      -11.84212        2.74270
H         10.88768      -11.21546        4.37155
H         13.07133      -10.42470        3.55101
H         13.13080       -8.98751        2.54262
H         12.56737      -10.38613        0.51236
H         12.49671      -11.82769        1.53499
H         14.65558      -12.10975        0.79607
H         15.05428      -11.06652        2.18088
H         15.77719       -8.10990       -1.76062
H         17.58423       -6.13852       -2.44473
H         17.95129       -6.87712        1.67889
H         15.59477       -5.54165        2.56896
H         14.46681       -4.15886        2.74916
H         17.25198       -4.00918        1.39153
H         16.85885       -3.40400        3.01720
H         16.12839       -2.64102        1.59229
