61

Br        10.78160       -7.30813        4.44491
C         10.20862       -6.21684        2.92988
C          8.77602       -6.57796        2.53392
C          8.34231       -5.70457        1.34739
S          6.71125       -6.21502        0.70049
C          5.56268       -5.51690        1.92887
C          4.11440       -5.84909        1.56311
O          3.33364       -5.32224        2.62153
C          1.92479       -5.30814        2.36476
C          1.25043       -6.61593        2.79350
O         -0.07406       -6.55368        2.25638
C         -0.94268       -7.58117        2.47621
C         -0.69323       -8.68093        3.31605
C         -1.66418       -9.66967        3.44472
C         -2.89632       -9.61717        2.75395
C         -3.11284       -8.49840        1.92083
C         -2.16619       -7.49379        1.78505
C         -3.90009      -10.76599        2.86937
C         -4.31994      -11.05042        4.35402
C         -5.17503      -10.08056        5.22274
C         -6.63841       -9.97097        4.74989
C         -5.19375      -10.70549        6.63656
C         -4.56436       -8.67299        5.32188
C         -5.11577      -10.57322        1.94636
C         -3.17420      -12.05619        2.38577
I          6.42963       -4.66020       -1.30009
H         10.92134       -6.41618        2.12184
H         10.29959       -5.17369        3.25269
H          8.11223       -6.42449        3.39658
H          8.72849       -7.64248        2.26239
H          9.01028       -5.83623        0.48307
H          8.29145       -4.63443        1.59150
H          5.72568       -4.43264        1.99634
H          5.83236       -5.99073        2.88555
H          3.98996       -6.94390        1.45401
H          3.84410       -5.37554        0.60079
H          1.72164       -5.12463        1.29554
H          1.51689       -4.46639        2.94015
H          1.22866       -6.69923        3.89219
H          1.78171       -7.49346        2.38453
H          0.24225       -8.76792        3.86770
H         -1.45277      -10.51249        4.10353
H         -4.04289       -8.40839        1.36197
H         -2.34379       -6.63337        1.13944
H         -3.39152      -11.24574        4.91652
H         -4.85324      -12.01627        4.33068
H         -7.08610      -10.96378        4.59388
H         -6.74420       -9.40053        3.81935
H         -7.23801       -9.45466        5.51374
H         -5.63153      -11.71461        6.62049
H         -5.79562      -10.09003        7.32053
H         -4.17913      -10.78288        7.05481
H         -4.56513       -8.15337        4.35368
H         -3.52732       -8.70691        5.68759
H         -5.14593       -8.05863        6.02530
H         -5.65407       -9.63575        2.12706
H         -5.82757      -11.39583        2.09560
H         -4.81001      -10.58982        0.89011
H         -2.33035      -12.32339        3.03603
H         -2.79232      -11.92741        1.36349
H         -3.87943      -12.89920        2.38667
