54

C          0.94384        4.49908       -1.51601
C          2.19489        4.10214       -0.75834
O          1.87301        3.10166        0.26650
P          2.30598        1.57241        0.09533
O          3.76453        1.28526        0.01925
C          1.53602        0.87483        1.59749
C          2.46969        0.95607        2.82834
C          2.85841        2.34524        3.21103
N          2.02312        3.25007        3.75516
C          2.64898        4.47207        3.93864
C          3.92936        4.28475        3.49529
N          4.04608        2.97197        3.05455
C          5.28568        2.40190        2.50190
C          6.29033        1.89682        3.54048
C          6.71942        2.85261        4.63811
Br         7.59726        4.45263        3.88117
Br         5.60952        0.29084        4.49229
C          1.98431        5.67585        4.52725
C          1.16930        6.56482        3.55216
C         -0.06270        5.96363        2.87611
C         -1.17753        5.36721        3.79809
Br        -1.78700        6.59280        5.17903
F         -2.21855        4.93338        3.07456
F         -0.65639        4.24561        4.42907
Br        -0.87490        7.33068        1.72664
F          0.32201        4.90868        2.05864
O          1.44836        1.08228       -1.15939
C          1.89977       -0.01607       -2.02557
C          1.28770       -1.33705       -1.60173
H          1.18801        5.28533       -2.24378
H          0.18014        4.89091       -0.83191
H          0.52403        3.64391       -2.06000
H          2.62151        4.95005       -0.20520
H          2.97367        3.70177       -1.42385
H          1.32541       -0.18422        1.39492
H          0.56982        1.37019        1.76616
H          3.37967        0.37567        2.64165
H          1.98035        0.48813        3.69626
H          1.03338        3.08552        3.92748
H          4.77472        4.96399        3.46467
H          5.76785        3.20663        1.92866
H          5.01230        1.62529        1.77661
H          7.16150        1.52571        2.98702
H          7.46674        2.39353        5.29022
H          5.88028        3.21607        5.24062
H          2.77619        6.31820        4.93598
H          1.36761        5.37627        5.38636
H          1.81999        6.90177        2.73320
H          0.84984        7.46255        4.09637
H          2.99796       -0.04196       -2.00820
H          1.56599        0.27779       -3.02870
H          1.66997       -1.67016       -0.62644
H          1.54575       -2.11171       -2.33743
H          0.19293       -1.26787       -1.55184
