45

I          0.94801       -0.30101        1.04624
C          3.00008       -0.25993        0.31063
C          3.31080       -1.48011       -0.54014
N          2.72114       -1.35959       -1.88206
N          2.89717       -2.53593       -2.64032
O          1.61898       -2.81844       -3.23482
O          3.78362       -2.18857       -3.71289
C          2.30663       -0.18235       -2.41807
N          1.67108       -0.14494       -3.59356
N          2.51212        0.95593       -1.73604
C          3.26621        1.03259       -0.47374
C          4.75911        1.29775       -0.76311
C          5.55814        1.59920        0.50966
C          7.05364        1.86799        0.29657
C          8.04501        0.64912        0.46354
C          7.96441       -0.61393       -0.48153
C          8.18431       -0.52163       -2.04264
C          9.52917        0.03709       -2.65801
C         10.88222       -0.68009       -2.29148
F         10.78996       -2.00461       -2.50803
F         11.84838       -0.17390       -3.07212
F         11.20729       -0.46587       -1.00622
F          9.37047       -0.07281       -4.00337
F          9.64063        1.34841       -2.34071
F          8.00624       -1.78840       -2.50565
F          7.18391        0.24819       -2.56342
F          8.84171       -1.52086       -0.00049
F          6.69894       -1.14536       -0.32955
F          9.30904        1.12411        0.41064
F          7.82324        0.14872        1.71762
F          7.28869        2.46079       -0.91486
F          7.46442        2.75064        1.26072
H          3.60036       -0.30163        1.22347
H          2.91540       -2.39735       -0.08866
H          4.40160       -1.59322       -0.64547
H          1.56982       -3.79128       -3.20410
H          4.37140       -2.96505       -3.76217
H          1.41860       -1.01013       -4.06379
H          1.56646        0.73150       -4.08946
H          1.95565        1.76038       -2.00657
H          2.84490        1.88236        0.08082
H          4.81581        2.16108       -1.44077
H          5.17902        0.45022       -1.31708
H          5.47262        0.79934        1.25744
H          5.16929        2.51300        0.98333
