85

C          0.96094       -0.64672       -0.35974
C          2.25991        0.14145       -0.17587
C          3.28474       -0.12736       -1.28387
C          4.63418        0.56379       -1.04894
C          5.54824        0.44685       -2.25609
O          6.83180        1.01921       -1.94675
C          7.60998        1.21239       -3.12098
C          9.00436        1.70217       -2.78761
C          9.97946        0.71229       -2.71887
C         11.34450        0.99172       -2.53358
C         11.76646        2.29969       -2.50241
C         10.81687        3.35043       -2.57954
C          9.39129        3.07486       -2.63209
C          8.48171        4.19415       -2.46915
C          6.99664        4.10014       -2.21134
C          6.05889        4.33546       -3.41524
C          4.58985        4.20436       -2.96806
C          3.66173        3.53809       -3.98741
C          2.27785        3.23318       -3.40069
C          1.48183        2.19123       -4.19041
C          0.14405        1.83279       -3.53449
C         -0.51072        0.58067       -4.12478
C         -1.83133        0.20242       -3.44753
C         -2.44539       -1.09290       -3.98772
C         -3.72094       -1.50644       -3.24929
C         -4.34653       -2.78707       -3.81650
N         -5.52417       -3.22238       -3.07539
C         -5.51492       -4.07642       -1.99555
C         -6.80360       -4.14992       -1.48548
C         -7.61840       -3.30493       -2.28011
C         -6.80216       -2.74091       -3.25073
C          9.01136        5.46180       -2.42290
N         10.35171        5.68845       -2.52657
C         11.25223        4.69908       -2.57969
N         12.62771        5.06116       -2.54790
O         12.71730        6.48881       -2.49837
O         13.20811        4.63053       -3.77581
H          0.22580       -0.39721        0.41707
H          1.14200       -1.73052       -0.31146
H          0.49912       -0.43459       -1.33466
H          2.70529       -0.10321        0.80297
H          2.03869        1.22208       -0.14501
H          2.86158        0.20132       -2.24928
H          3.44448       -1.21519       -1.37925
H          5.13576        0.12947       -0.16991
H          4.47549        1.63130       -0.82445
H          5.10688        0.97821       -3.12059
H          5.68530       -0.61057       -2.55377
H          7.10246        1.90474       -3.81522
H          7.72007        0.25371       -3.66171
H          9.66192       -0.32637       -2.82250
H         12.06324        0.17712       -2.44938
H         12.82217        2.53701       -2.40453
H          6.75540        4.85600       -1.44680
H          6.76474        3.12784       -1.76008
H          6.27413        3.60495       -4.21045
H          6.25045        5.32355       -3.86239
H          4.19497        5.19201       -2.68044
H          4.55873        3.59680       -2.04817
H          4.12552        2.59046       -4.31528
H          3.56879        4.15597       -4.89576
H          1.69564        4.16535       -3.30699
H          2.40780        2.85857       -2.36949
H          2.09461        1.27570       -4.27939
H          1.31393        2.54009       -5.22345
H         -0.54797        2.68871       -3.61059
H          0.30666        1.67592       -2.45356
H          0.19522       -0.26507       -4.03836
H         -0.67702        0.72250       -5.20672
H         -2.55495        1.02746       -3.56379
H         -1.66668        0.09931       -2.36057
H         -1.70075       -1.90527       -3.91491
H         -2.65941       -0.97539       -5.06446
H         -4.46535       -0.69499       -3.29563
H         -3.50193       -1.66390       -2.18047
H         -3.61762       -3.61120       -3.80002
H         -4.63800       -2.64113       -4.86782
H         -4.59815       -4.56793       -1.68558
H         -7.11784       -4.75897       -0.64428
H         -8.68429       -3.13299       -2.17163
H         -7.02803       -2.04542       -4.05272
H          8.39713        6.34813       -2.27781
H         10.73214        6.63818       -2.51596
H         13.37454        6.64556       -1.79606
H         14.13668        4.44559       -3.53792
