72

C          2.02951        2.65630       -1.55091
C          3.53708        2.51422       -1.54835
O          3.97600        2.42710       -0.17280
C          5.37255        2.35087       -0.05126
C          5.64912        2.52744        1.44789
N          7.06857        2.32327        1.78437
C          7.67482        1.10486        1.97521
N          8.95677        1.23548        2.21170
N          9.17100        2.58113        2.16008
C          8.04210        3.26515        1.91116
C          7.87965        4.73236        1.74254
C          7.99063        5.15794        0.25266
C          7.26447        6.48255       -0.04574
P          6.48872        6.42985       -1.69409
O          5.72094        5.17284       -1.91886
O          5.61992        7.76990       -1.79690
C          4.16573        7.74282       -1.98001
C          3.81053        8.29535       -3.34568
O          7.75477        6.67703       -2.63435
C          7.59500        6.65962       -4.09587
C          7.67509        8.06533       -4.65668
C         10.51842        3.10102        2.41772
C         10.75558        3.24110        3.92817
C         12.05523        3.96590        4.31015
C         13.33055        3.08894        4.61706
C         13.94859        2.14138        3.51558
C         14.54405        2.69609        2.16220
C         15.73029        3.74066        2.14130
C         17.08314        3.35802        2.85181
F         17.49470        2.13748        2.46883
F         18.01046        4.26333        2.50351
F         16.94269        3.37652        4.18809
F         16.00778        3.93200        0.82578
F         15.29112        4.91211        2.66453
F         14.94046        1.60345        1.46735
F         13.51650        3.28002        1.46945
F         14.91750        1.42110        4.12274
F         12.95037        1.27514        3.13986
F         14.30191        3.91370        5.06771
F         12.96909        2.24873        5.63217
F         12.37941        4.91190        3.37113
F         11.82309        4.63536        5.48223
H          1.66374        2.71996       -2.58469
H          1.72075        3.56753       -1.02080
H          1.54773        1.79399       -1.07130
H          4.03116        3.37844       -2.02281
H          3.85015        1.59785       -2.08316
H          5.86721        3.14424       -0.64171
H          5.76604        1.36857       -0.39175
H          5.06463        1.79903        2.02486
H          5.35201        3.52972        1.77823
H          7.14583        0.15786        1.93703
H          8.60898        5.26271        2.36986
H          6.88668        5.00565        2.12868
H          7.54650        4.36735       -0.36823
H          9.04773        5.22277       -0.03973
H          7.91779        7.36011        0.04481
H          6.42100        6.63271        0.64622
H          3.75562        8.36388       -1.17189
H          3.81572        6.70869       -1.85593
H          4.19106        9.31761       -3.46986
H          2.71781        8.32220       -3.46040
H          4.22060        7.66532       -4.14687
H          6.64473        6.16429       -4.34697
H          8.41271        6.02561       -4.46300
H          6.86319        8.69538       -4.27289
H          7.59219        8.02602       -5.75214
H          8.63396        8.53629       -4.40489
H         10.61323        4.06512        1.90641
H         11.20857        2.39411        1.94816
H         10.72746        2.25976        4.41890
H          9.95260        3.85096        4.36718
