66

C         13.61978        3.49750        4.80359
C         12.53963        3.00590        3.83828
C         13.07465        2.71147        2.43323
C         11.99880        2.21851        1.46155
C         12.52470        1.94916        0.04849
C         11.43995        1.46788       -0.91989
C         11.94787        1.26346       -2.35022
C         10.84855        0.82293       -3.32370
C         11.33434        0.76215       -4.77588
C         10.20423        0.39331       -5.74238
N         10.62068        0.47583       -7.15720
C         11.13691       -0.55306       -7.93992
C         11.22413       -1.98640       -7.54922
C          9.93010       -2.76393       -7.88856
C         10.04094       -4.25649       -7.56595
C          8.77637       -5.03498       -7.94375
C          8.86976       -6.53506       -7.64547
C          7.59909       -7.29701       -8.02784
N         11.47229       -0.08883       -9.12920
N         11.16455        1.23054       -9.07994
C         10.65087        1.60696       -7.90919
C         10.17896        2.96950       -7.51461
C         10.89072        4.16462       -8.18859
C         10.46968        4.50575       -9.60580
F         10.90960        3.51025      -10.52851
H         13.20573        3.70707        5.79903
H         14.09056        4.42176        4.43724
H         14.41517        2.74747        4.92530
H         11.73576        3.75810        3.76810
H         12.06776        2.09522        4.24406
H         13.88020        1.95911        2.50027
H         13.54571        3.62338        2.02547
H         11.18678        2.96517        1.40930
H         11.53866        1.29835        1.86209
H         13.33510        1.20106        0.09357
H         12.98419        2.87107       -0.34964
H         10.61422        2.20089       -0.93219
H         11.00433        0.52565       -0.54510
H         12.76298        0.52001       -2.35382
H         12.39378        2.20673       -2.71203
H         10.00092        1.52709       -3.25483
H         10.45424       -0.16115       -3.01942
H         12.15589        0.03505       -4.87721
H         11.75282        1.74200       -5.06144
H          9.33828        1.05741       -5.61420
H          9.84777       -0.63029       -5.57260
H         11.46090       -2.07765       -6.47863
H         12.06886       -2.41940       -8.10289
H          9.71534       -2.62949       -8.96039
H          9.07654       -2.32730       -7.34236
H         10.25013       -4.38953       -6.49031
H         10.90726       -4.67986       -8.10225
H          8.56926       -4.89105       -9.01849
H          7.90986       -4.61035       -7.40696
H          9.08032       -6.67978       -6.57261
H          9.73284       -6.95849       -8.18558
H          6.72569       -6.91780       -7.47699
H          7.69281       -8.36810       -7.80561
H          7.38309       -7.19771       -9.10175
H         11.28990        1.84774       -9.89071
H         10.30226        3.05814       -6.42638
H          9.09187        3.02743       -7.70170
H         11.98370        4.04140       -8.14521
H         10.66076        5.05598       -7.58493
H         10.92921        5.44716       -9.93408
H          9.37739        4.56994       -9.71872
