107

C          4.77166       -1.71261       -3.26848
C          5.39785       -0.50510       -2.56586
C          5.50274       -0.67531       -1.04616
C          6.15752        0.51256       -0.33354
C          6.23975        0.34004        1.18668
C          6.95606        1.49096        1.90183
C          7.00063        1.31230        3.42248
C          7.79858        2.42134        4.12060
N          7.86259        2.24892        5.57968
C          7.00526        2.83294        6.44107
S          7.03392        2.60142        8.09906
S          5.82166        3.92977        5.62951
C          4.94250        4.62548        7.04645
C          3.65262        3.87941        7.40046
C          3.13753        4.33188        8.79204
C          1.66653        4.08110        8.98769
C          0.71977        5.10955        8.73891
C          1.14907        6.48336        8.31234
C          1.55564        7.37716        9.50166
O          2.20031        8.50066        8.95069
C          2.66448        9.42962        9.93422
C          3.41928       10.52651        9.19555
O          3.91389       11.42326       10.17051
C          4.66154       12.49001        9.59939
C         -0.65351        4.84984        8.90188
C         -1.07958        3.59618        9.27482
N         -0.15125        2.63459        9.47872
C          1.19294        2.80897        9.36140
C          2.03419        1.58295        9.63021
C          3.03613        1.69372       10.77152
C          4.39603        1.53128       10.47263
C          5.36647        1.60913       11.47032
C          4.97531        1.84646       12.78836
C          3.62119        1.99158       13.09499
C          2.62960        1.91748       12.10631
C          1.17963        2.05284       12.50458
C          8.96713        1.41252        6.08163
C         10.19965        2.25302        6.43525
C         11.33863        1.42261        7.03222
C         12.54075        2.28660        7.42818
C         13.69204        1.50437        8.06711
C         14.86915        2.39526        8.47751
C         16.02871        1.63358        9.12815
C         17.18990        2.54118        9.54261
H          4.70443       -1.55695       -4.35384
H          3.75432       -1.90835       -2.89782
H          5.36461       -2.62402       -3.10042
H          4.80737        0.39964       -2.78929
H          6.40303       -0.31793       -2.97999
H          6.07470       -1.59326       -0.82217
H          4.49341       -0.84211       -0.62925
H          5.59823        1.43546       -0.56744
H          7.17309        0.66492       -0.73923
H          6.75868       -0.60655        1.41829
H          5.22021        0.23277        1.59715
H          6.45752        2.44512        1.65807
H          7.98462        1.57726        1.50989
H          7.44905        0.33533        3.66787
H          5.97716        1.29688        3.83033
H          7.37561        3.41053        3.89205
H          8.83492        2.43861        3.75065
H          4.73872        5.67347        6.78138
H          5.65354        4.59056        7.88812
H          3.85521        2.79975        7.40921
H          2.88918        4.05789        6.62742
H          3.33719        5.40294        8.91628
H          3.71977        3.82202        9.57003
H          0.33591        6.97593        7.76263
H          2.01028        6.42893        7.63311
H          2.23045        6.83222       10.19341
H          0.65814        7.66602       10.08507
H          3.33726        8.92800       10.65433
H          1.81583        9.85883       10.49757
H          2.74134       11.03908        8.48475
H          4.24445       10.07786        8.60699
H          4.98398       13.13146       10.42728
H          4.04745       13.08399        8.89856
H          5.55165       12.11546        9.06166
H         -1.38972        5.63200        8.72179
H         -2.12080        3.31298        9.41398
H         -0.46978        1.70606        9.75747
H          2.58485        1.34037        8.70923
H          1.35366        0.73036        9.80311
H          4.70991        1.35579        9.44137
H          6.41812        1.48540       11.21194
H          5.72096        1.90945       13.58125
H          3.31901        2.15786       14.13074
H          1.07591        2.03401       13.59566
H          0.56378        1.22735       12.11167
H          0.73502        2.99914       12.15761
H          9.20102        0.67678        5.29796
H          8.60550        0.87140        6.96590
H          9.89247        3.02590        7.15682
H         10.55501        2.78219        5.53524
H         11.65875        0.64829        6.31329
H         10.96750        0.88177        7.91991
H         12.20255        3.07014        8.12879
H         12.91392        2.82112        6.53701
H         14.04554        0.72928        7.36456
H         13.31813        0.96122        8.95302
H         14.50974        3.17352        9.17414
H         15.24267        2.93743        7.59065
H         16.39380        0.86223        8.42911
H         15.65419        1.08686       10.01029
H         17.60188        3.08267        8.67790
H         18.00913        1.96657        9.99559
H         16.86597        3.29324       10.27774
