111

S          1.38798        0.48599       -1.19948
C          2.94896        0.61595       -0.67600
N          3.51287        1.72101       -0.07817
C          4.88976        2.07872       -0.24198
C          5.63472        2.49227        0.87076
C          6.97437        2.84700        0.71320
C          7.57623        2.79647       -0.54949
C          6.82257        2.40656       -1.66147
C          5.47800        2.05750       -1.51480
C          2.64214        2.73848        0.47008
C          2.61131        4.00881       -0.11194
C          1.77819        4.99063        0.42712
C          0.98248        4.70309        1.53903
C          1.02507        3.43092        2.11857
C          1.85736        2.44511        1.58941
S          3.87553       -0.86539       -0.97125
C          5.45006       -0.94377       -0.00366
C          5.97512       -2.36772       -0.23121
C          7.48932       -2.49009        0.01853
N          8.05199       -3.73964       -0.52526
C          8.19481       -4.89115        0.38442
C          8.16477       -6.22700       -0.36023
C          8.37183       -7.38995        0.62111
C          8.18278       -8.75094       -0.05603
C          8.20317      -10.01539        0.80511
C          9.60722      -10.48757        1.32452
Br        10.42797       -9.33542        2.68967
F          9.51655      -11.72860        1.82594
F         10.45041      -10.52941        0.25594
Br         6.93060       -9.92130        2.29798
F          7.79095      -11.04655       -0.01800
C          9.16339       -6.19811       -1.53816
N          8.84473       -4.99555       -2.33006
C          8.36173       -3.84904       -1.82263
N          8.22672       -2.78603       -2.65531
C         10.65380       -6.26422       -1.16616
C         11.56404       -6.27843       -2.39277
O         12.89195       -6.46567       -1.95674
C         13.82776       -6.39032       -3.03351
C         15.22511       -6.63642       -2.47979
O         16.10297       -6.35826       -3.56215
C         17.46073       -6.47712       -3.35784
C         18.26771       -6.10699       -4.44294
C         19.64877       -6.18700       -4.33748
C         20.28469       -6.64533       -3.16625
C         19.45537       -7.00021       -2.09771
C         18.05755       -6.92271       -2.17752
C         21.81639       -6.72206       -3.10073
C         22.41059       -7.63192       -4.22751
C         22.08125       -9.14329       -4.42264
C         22.45993      -10.01521       -3.20919
C         20.60339       -9.39954       -4.77862
C         22.94622       -9.59649       -5.62024
C         22.37946       -5.29959       -3.36274
C         22.32133       -7.13435       -1.70461
H          5.15556        2.53440        1.84936
H          7.55095        3.16989        1.58071
H          8.62102        3.08434       -0.66871
H          7.27313        2.40410       -2.65514
H          4.87569        1.77642       -2.37894
H          3.22715        4.22084       -0.98621
H          1.74461        5.97979       -0.03020
H          0.33063        5.47041        1.95716
H          0.40689        3.20514        2.98787
H          1.88892        1.44662        2.02594
H          5.25513       -0.73902        1.05648
H          6.16359       -0.19640       -0.37681
H          5.76466       -2.66184       -1.27472
H          5.42897       -3.08872        0.39407
H          7.71983       -2.47855        1.09205
H          8.03511       -1.63596       -0.41147
H          7.35785       -4.85024        1.09468
H          9.12588       -4.77550        0.96437
H          7.16125       -6.32938       -0.81022
H          7.63843       -7.29507        1.43584
H          9.36197       -7.31912        1.09077
H          8.94331       -8.92007       -0.83478
H          7.20416       -8.77898       -0.55911
H          8.93224       -7.04494       -2.20291
H          9.04962       -5.01318       -3.32256
H          8.36950       -2.91864       -3.64893
H          7.61850       -2.01767       -2.40271
H         10.84121       -7.18523       -0.59495
H         10.93449       -5.42073       -0.51645
H         11.48395       -5.32415       -2.95641
H         11.26133       -7.09388       -3.08519
H         13.79334       -5.38961       -3.50414
H         13.58802       -7.14087       -3.80948
H         15.32891       -7.67949       -2.13299
H         15.41745       -5.96340       -1.62491
H         17.79206       -5.75767       -5.35986
H         20.24685       -5.89636       -5.20228
H         19.88955       -7.35783       -1.16491
H         17.45967       -7.21420       -1.31447
H         23.50718       -7.55684       -4.12242
H         22.18221       -7.14139       -5.18902
H         21.77118       -9.87229       -2.36660
H         23.48054       -9.80529       -2.85732
H         22.41610      -11.07947       -3.48448
H         19.92716       -9.16506       -3.94710
H         20.46070      -10.45936       -5.03866
H         20.28726       -8.79890       -5.64393
H         24.01905       -9.47628       -5.40793
H         22.71570       -9.01175       -6.52339
H         22.76623      -10.65639       -5.85197
H         22.11413       -4.92842       -4.36170
H         23.47669       -5.30211       -3.28805
H         21.98682       -4.58808       -2.62273
H         21.92308       -8.09510       -1.36062
H         22.06136       -6.37330       -0.95462
H         23.41647       -7.22218       -1.71860
