74

C          4.22386       -3.95200        0.71498
C          2.97792       -3.07540        0.84541
N          2.25142       -3.29004        2.10944
C          1.26366       -4.21183        2.18604
S          0.80905       -5.21514        0.93043
S          0.46386       -4.23901        3.79585
C         -0.78551       -5.55036        3.63606
C         -2.05332       -5.19871        2.85072
C         -2.71568       -3.88543        3.26966
N         -4.01338       -3.64697        2.58961
C         -4.34414       -2.41681        2.10366
N         -5.55152       -1.87484        2.37810
C         -5.74236       -0.63144        1.64007
C         -4.29013       -0.25027        1.36126
N         -3.60145       -1.57140        1.33346
C         -2.39073       -1.81351        0.45135
C         -2.42610       -3.23353       -0.17184
C         -3.28618       -3.52231       -1.42242
C         -3.01101       -4.96967       -1.85798
C         -4.79453       -3.30640       -1.23408
C         -2.39152       -0.79953       -0.71718
O         -2.02800        0.50668       -0.26787
C         -1.08495       -1.59444        1.24209
C         -5.11021       -4.46415        3.14552
C         -6.07020       -5.01810        2.08374
C         -7.38280       -5.52176        2.68867
C         -8.26708       -4.38902        3.19333
O         -7.95338       -3.21120        3.17193
O         -9.47197       -4.73083        3.69002
C          2.70670       -2.48018        3.25230
C          2.03881       -1.10519        3.34153
H          4.74512       -3.71944       -0.22344
H          3.94859       -5.01370        0.70131
H          4.92931       -3.78327        1.54027
H          2.27738       -3.28434        0.02678
H          3.24551       -2.00867        0.81042
H         -1.00929       -5.78930        4.68731
H         -0.29653       -6.41986        3.17657
H         -2.75579       -6.03886        2.98161
H         -1.79322       -5.16886        1.78605
H         -2.05694       -3.03707        3.07525
H         -2.91181       -3.87499        4.35750
H         -6.34623       -2.39671        2.77336
H         -6.26359        0.11107        2.25459
H         -6.32345       -0.80135        0.71772
H         -3.86596        0.36590        2.17016
H         -4.15662        0.29155        0.42567
H         -2.71395       -3.95389        0.60132
H         -1.38197       -3.48169       -0.41456
H         -2.95240       -2.86893       -2.24635
H         -3.33190       -5.68162       -1.08098
H         -1.94070       -5.13950       -2.03852
H         -3.55344       -5.21664       -2.78060
H         -5.18532       -3.95734       -0.43958
H         -5.33593       -3.55733       -2.15647
H         -5.05371       -2.27011       -0.97872
H         -3.37012       -0.78751       -1.22683
H         -1.64800       -1.17846       -1.43719
H         -1.80392        1.04528       -1.04141
H         -0.84774       -2.43757        1.89585
H         -1.13200       -0.67377        1.83441
H         -0.24396       -1.49701        0.54319
H         -5.65083       -3.89530        3.92133
H         -4.63283       -5.30302        3.66567
H         -5.57477       -5.83398        1.54012
H         -6.30664       -4.24474        1.34093
H         -7.20288       -6.22191        3.52308
H         -7.95217       -6.09150        1.93664
H         -9.61211       -5.69390        3.63965
H          3.79542       -2.36788        3.14572
H          2.54817       -3.05363        4.17626
H          2.17579       -0.53049        2.41530
H          2.48721       -0.53043        4.16286
H          0.96361       -1.19615        3.53838
