71

C          0.54733       -0.06377        0.28533
C          2.07830       -0.06229        0.28494
C          2.68652       -1.38953       -0.18193
C          4.21865       -1.40246       -0.17371
C          4.82427       -2.72868       -0.64502
C          6.35621       -2.74978       -0.61738
C          6.95942       -4.07807       -1.08597
C          8.49092       -4.11095       -1.03343
C          9.08520       -5.43379       -1.52730
C         10.61645       -5.48365       -1.47837
C         11.18439       -6.80295       -2.01071
C         12.71524       -6.88787       -1.96900
C         13.24114       -8.21914       -2.52356
C         14.75597       -8.36287       -2.56840
N         15.42417       -8.21426       -1.19447
C         14.85427       -9.08984       -0.10192
C         15.06019      -10.59774       -0.35368
O         15.60764      -10.95838       -1.39023
C         14.57761      -11.53561        0.67784
C         14.70476      -12.91499        0.41310
C         14.27615      -13.84741        1.35026
C         13.71950      -13.41723        2.56136
C         13.59008      -12.05124        2.83519
C         14.01409      -11.11157        1.89860
C         16.94436       -8.29589       -1.27452
C         17.56184       -7.04648       -1.90009
C         19.08479       -7.12773       -1.82067
Br        19.89791       -5.53433       -2.60490
H          0.14285        0.90019        0.62343
H          0.14869       -0.84296        0.95212
H          0.14750       -0.25624       -0.72151
H          2.44710        0.16850        1.29888
H          2.44652        0.75236       -0.36158
H          2.32419       -1.61730       -1.20016
H          2.31144       -2.20680        0.45954
H          4.57909       -1.17927        0.84611
H          4.59424       -0.58277       -0.81136
H          4.47433       -2.94590       -1.66962
H          4.43789       -3.54956       -0.01529
H          6.70463       -2.53225        0.40777
H          6.74475       -1.93045       -1.24754
H          6.62602       -4.28630       -2.11780
H          6.55647       -4.89992       -0.46808
H          8.82523       -3.92129        0.00183
H          8.89555       -3.28075       -1.63850
H          8.75085       -5.61734       -2.56327
H          8.67539       -6.26532       -0.92728
H         10.95600       -5.32689       -0.43893
H         11.03034       -4.64392       -2.06325
H         10.84939       -6.95207       -3.05127
H         10.76072       -7.64413       -1.43457
H         13.03942       -6.73693       -0.91992
H         13.15012       -6.05187       -2.54399
H         12.90690       -8.33163       -3.56719
H         12.78797       -9.07056       -1.99035
H         15.20114       -7.56976       -3.18274
H         15.07126       -9.33812       -2.95084
H         15.20537       -7.25327       -0.89436
H         13.78550       -8.85708       -0.01068
H         15.34361       -8.78044        0.83194
H         15.14283      -13.22732       -0.53475
H         14.37429      -14.91269        1.14144
H         13.38613      -14.15054        3.29633
H         13.15924      -11.72241        3.78042
H         13.90582      -10.05198        2.13572
H         17.17670       -9.21179       -1.82820
H         17.29685       -8.42250       -0.24106
H         17.21994       -6.14194       -1.36943
H         17.26702       -6.93909       -2.95330
H         19.48259       -7.98013       -2.38265
H         19.44565       -7.17385       -0.78671
