56

C          0.65816        1.25133       -1.62977
C          2.07344        0.81528       -1.24164
C          2.48808       -0.49393       -1.93073
C          3.85716       -0.98829       -1.50502
C          5.04381       -0.08690       -1.91041
N          6.16933       -1.06922       -2.18040
C          5.51043       -2.46936       -1.93628
O          4.16713       -2.22873       -2.18288
C          6.06022       -3.56313       -2.83177
C          6.07534       -4.90041       -2.08159
O          6.29922       -4.98183       -0.88794
O          5.85298       -5.91616       -2.91530
C          5.90721       -7.26647       -2.33087
C          5.69872       -8.26679       -3.45036
C          5.75521       -9.71331       -2.93801
C          5.55468      -10.74419       -4.05160
C          7.48440       -0.83806       -1.41217
C          7.30613       -0.73101        0.07325
C          7.15874        0.52789        0.67356
C          6.96429        0.61920        2.05336
C          6.92243       -0.53659        2.83243
C          7.09319       -1.80870        2.25805
C          7.29048       -1.88513        0.87414
C          7.08422       -3.05212        3.10586
H          0.38319        2.18891       -1.13032
H         -0.08378        0.49183       -1.34621
H          0.57232        1.41345       -2.71367
H          2.13524        0.68785       -0.14823
H          2.78415        1.61958       -1.49737
H          2.47880       -0.37145       -3.02677
H          1.75967       -1.28499       -1.69555
H          3.89126       -1.16434       -0.41389
H          5.34828        0.60419       -1.11946
H          4.83817        0.46025       -2.83788
H          6.39792       -1.02159       -3.18026
H          5.71246       -2.68349       -0.87436
H          7.10894       -3.35976       -3.10405
H          5.47874       -3.62884       -3.76006
H          5.12579       -7.32933       -1.55971
H          6.88391       -7.38263       -1.83921
H          6.47065       -8.11372       -4.22180
H          4.72617       -8.07750       -3.93227
H          4.98637       -9.85668       -2.16061
H          6.72495       -9.88926       -2.44345
H          4.58005      -10.61706       -4.54471
H          5.59560      -11.76701       -3.65528
H          6.33234      -10.65542       -4.82419
H          7.91176        0.07937       -1.83719
H          8.13309       -1.68043       -1.68928
H          7.22146        1.43729        0.07140
H          6.85469        1.59690        2.52285
H          6.77121       -0.45397        3.91042
H          7.44031       -2.86908        0.42114
H          7.97744       -3.09360        3.74679
H          7.06823       -3.96007        2.49059
H          6.21034       -3.07165        3.77187
