65

C         10.22251        2.85162      -15.00354
C          9.67039        3.69744      -13.85361
C          9.74605        2.99495      -12.49356
C          9.20222        3.83647      -11.33565
C          9.30215        3.14058       -9.97467
C          8.92021        4.05682       -8.80812
C          9.22914        3.45329       -7.43297
C          9.02206        4.46777       -6.30593
C          9.40765        3.96941       -4.90655
N         10.80312        3.49442       -4.83997
N         11.17528        2.24600       -4.77210
N         12.49415        2.17683       -4.85935
C         12.98389        3.41628       -5.00167
N         11.92114        4.28691       -4.99094
C         11.88810        5.63166       -5.03513
C         11.89389        6.83831       -5.06520
C         14.39751        3.80529       -5.20080
C         15.01719        3.12749       -6.45665
C         14.17876        3.21983       -7.74455
C         13.83992        4.66483       -8.15879
C         12.66532        4.75447       -9.15137
C         12.07140        6.12950       -9.23859
C         11.86266        6.88625      -10.33220
C         12.21192        6.47344      -11.73662
C         11.23246        8.24888      -10.21228
C         14.88079        2.44419       -8.86755
H         10.15260        3.38223      -15.96265
H          9.66841        1.90693      -15.10632
H         11.28078        2.59709      -14.84155
H          8.62188        3.96759      -14.06381
H         10.22203        4.65165      -13.79969
H         10.79705        2.72549      -12.28227
H          9.19648        2.03880      -12.54573
H          8.15101        4.10658      -11.53585
H          9.75602        4.78923      -11.28567
H         10.33846        2.78668       -9.83081
H          8.67268        2.23457       -9.96586
H          7.84986        4.31600       -8.86776
H          9.47104        5.00757       -8.91143
H         10.27787        3.10533       -7.43671
H          8.61422        2.55549       -7.25527
H          7.96105        4.75472       -6.23205
H          9.56825        5.39662       -6.53155
H          8.83172        3.08602       -4.60189
H          9.29475        4.74843       -4.13900
H         11.90051        7.91080       -5.09760
H         14.96151        3.49123       -4.30855
H         14.46035        4.89986       -5.25755
H         15.19597        2.06802       -6.22293
H         16.00596        3.58877       -6.60488
H         13.21770        2.70421       -7.54821
H         14.73235        5.15543       -8.58130
H         13.57254        5.26689       -7.27384
H         11.88805        4.04778       -8.80671
H         12.97122        4.39115      -10.14171
H         11.76961        6.55924       -8.27356
H         12.63377        5.46474      -11.80852
H         12.93539        7.17842      -12.17580
H         11.31931        6.50975      -12.38105
H         11.01226        8.50874       -9.16842
H         10.29203        8.29976      -10.78428
H         11.88991        9.02791      -10.62956
H         15.84767        2.90588       -9.11842
H         14.27453        2.42406       -9.78231
H         15.07066        1.40202       -8.57630
