77

C          0.72896       -0.00186       -0.49088
C          2.24624       -0.05276       -0.29301
C          2.69318       -1.08945        0.74435
C          4.21076       -1.13260        0.94998
C          4.66979       -2.17238        1.97790
C          6.18880       -2.19761        2.17604
C          6.67247       -3.27644        3.15067
C          8.19380       -3.28619        3.33113
C          8.70292       -4.41952        4.22861
C         10.22972       -4.41142        4.37909
C         10.74360       -5.57916        5.20086
O         12.18487       -5.48012        5.27629
C         12.78964       -6.54962        5.94537
C         14.27415       -6.31634        5.94522
C         14.85365       -5.14859        5.41131
C         16.23259       -5.03563        5.42958
C         16.98394       -6.07326        5.99451
N         16.32997       -7.12304        6.52871
N         15.01833       -7.27394        6.50587
C         16.91395       -8.25840        7.58973
O         16.92424       -7.89495        8.70884
C         17.18895       -9.54580        6.92072
C         18.51380       -6.03254        6.00352
C         19.22267       -6.61953        4.70786
C         19.01783       -5.95119        3.28860
C         19.45679       -4.46197        2.97321
C         20.93929       -3.95942        3.20433
C         22.16675       -4.62472        2.46010
C         22.26845       -4.64046        0.88094
C         22.23325       -3.27197        0.10371
F         23.09582       -2.39410        0.64000
F         22.57519       -3.50231       -1.17218
F         20.99500       -2.74249        0.12706
F         23.46021       -5.22584        0.61046
F         21.27672       -5.42849        0.38946
F         23.25828       -3.98376        2.93997
F         22.22650       -5.92676        2.85367
F         20.92676       -2.63988        2.89902
F         21.19417       -4.08451        4.53555
F         19.11807       -4.25548        1.68281
F         18.67292       -3.64638        3.74553
F         19.62070       -6.76971        2.40408
F         17.66674       -5.98392        3.04736
F         20.53437       -6.71553        4.97779
F         18.71577       -7.88942        4.57006
F         18.91848       -4.75987        6.21637
F         18.98267       -6.80405        7.02996
H          0.44493        0.75124       -1.23916
H          0.21181        0.25022        0.44719
H          0.33756       -0.97241       -0.83184
H          2.61144        0.94319        0.01074
H          2.73629       -0.27151       -1.25711
H          2.33670       -2.08913        0.43794
H          2.19909       -0.87690        1.70907
H          4.56448       -0.13323        1.25955
H          4.70283       -1.33865       -0.01716
H          4.32584       -3.17332        1.66278
H          4.17659       -1.97500        2.94588
H          6.52702       -1.20722        2.52852
H          6.67861       -2.35133        1.19809
H          6.34140       -4.26628        2.79031
H          6.18644       -3.13380        4.13164
H          8.52014       -2.31637        3.74533
H          8.67524       -3.36881        2.34092
H          8.37820       -5.38718        3.80867
H          8.23107       -4.34417        5.22325
H         10.55523       -3.47101        4.85246
H         10.70190       -4.44739        3.38391
H         10.47427       -6.54488        4.73417
H         10.32892       -5.56817        6.22590
H         12.58415       -7.52765        5.46160
H         12.44899       -6.64362        6.99833
H         14.20656       -4.37663        4.99746
H         16.74329       -4.16761        5.01668
H         16.30660       -9.85542        6.34264
H         17.43474      -10.29689        7.67861
H         18.02219       -9.42677        6.21508
