70

C          1.71509       -0.55807       -0.00994
C          3.08970        0.13666        0.00721
C          3.01674        1.67409        0.26326
C          2.12927        2.67236       -0.55788
C          2.37866        2.55046       -2.06525
C          1.38684        2.12274       -2.96510
C          1.64198        1.97892       -4.32525
C          2.91511        2.26533       -4.83308
C          3.92189        2.70990       -3.96585
C          3.63972        2.85119       -2.60714
O          3.07095        2.08638       -6.18721
C          4.36946        2.24980       -6.74262
C          4.23522        1.92830       -8.22531
O          5.55435        1.92508       -8.77343
C          5.58271        1.75658      -10.17197
C          7.06438        1.70869      -10.57827
C          7.25444        1.65942      -12.06765
C          7.09161        0.47465      -12.82155
C          7.27609        0.46095      -14.20008
C          7.62888        1.63210      -14.88433
N          7.75331        2.75897      -14.12201
C          7.58568        2.80241      -12.77602
C          7.89469        1.73954      -16.32069
C          8.85482        2.65260      -16.80550
C          9.09189        2.76305      -18.17322
C          8.37727        1.96735      -19.07437
C          7.42821        1.05435      -18.60269
C          7.18760        0.93527      -17.23616
C          0.63671        2.52324       -0.19776
C          2.53954        4.09602       -0.09896
C          3.90389       -0.43755        1.18814
C          3.83685       -0.21560       -1.29570
H          1.11657       -0.30559        0.87730
H          1.84784       -1.65024       -0.01936
H          1.13435       -0.29651       -0.90484
H          4.05588        2.04147        0.20899
H          2.71583        1.81410        1.31590
H          0.38807        1.88408       -2.60285
H          0.86438        1.64135       -5.01085
H          4.92042        2.94689       -4.33084
H          4.44557        3.18586       -1.95302
H          5.09131        1.55795       -6.27382
H          4.73680        3.28208       -6.60696
H          3.60450        2.68419       -8.72812
H          3.75697        0.93991       -8.35299
H          5.06948        2.59654      -10.68511
H          5.06639        0.82285      -10.47655
H          7.53109        0.82899      -10.11112
H          7.56133        2.59591      -10.16102
H          6.84145       -0.45424      -12.30617
H          7.19029       -0.46813      -14.76055
H          7.97357        3.62702      -14.61149
H          7.72688        3.77570      -12.30786
H          9.46625        3.23995      -16.11594
H          9.84824        3.45904      -18.53588
H          8.56377        2.05510      -20.14486
H          6.86658        0.43860      -19.30495
H          6.42227        0.24402      -16.88155
H          0.20518        1.55994       -0.48858
H          0.04003        3.31847       -0.66765
H          0.51314        2.61775        0.88988
H          3.60562        4.29746       -0.26789
H          2.34639        4.21850        0.97655
H          1.96035        4.85795       -0.63913
H          3.39510       -0.26225        2.14757
H          4.90130        0.02353        1.24813
H          4.04289       -1.52250        1.07372
H          3.27097        0.06607       -2.19213
H          4.01397       -1.30072       -1.34200
H          4.81553        0.28438       -1.34448
