55

C          3.43466       -1.94866        7.69703
C          3.29366       -1.82491        6.17886
C          4.35475       -0.91579        5.55091
C          4.24481       -0.83213        4.02514
C          5.26804        0.07724        3.36537
O          6.64969       -0.36899        3.64126
C          7.17365       -1.26477        2.79696
O          6.65176       -1.75082        1.81942
C          8.62047       -1.60218        3.17850
S          8.87162       -1.82576        4.95932
C          8.08627       -3.38325        5.32300
C          7.52381       -4.22553        4.35766
C          6.86653       -5.38821        4.76213
C          6.77509       -5.69717        6.12146
C          7.33575       -4.86355        7.09210
C          8.00286       -3.69579        6.70280
O          8.60849       -2.81870        7.54351
C          8.44855       -3.00878        8.96344
C         10.72121       -2.19587        5.00680
C         11.51684       -1.01890        4.53832
C         12.03989       -1.03951        3.23172
C         12.79821        0.02427        2.74566
C         13.03266        1.12768        3.56945
C         12.52202        1.15247        4.86928
C         11.76262        0.09220        5.38321
C         11.26191        0.14411        6.80509
H          2.66423       -2.60638        8.12044
H          3.34192       -0.96923        8.18856
H          4.41628       -2.36597        7.97138
H          2.29159       -1.43855        5.93079
H          3.35506       -2.82523        5.71820
H          5.35637       -1.28443        5.83087
H          4.27183        0.09727        5.98120
H          3.25345       -0.43895        3.74341
H          4.30868       -1.83666        3.57720
H          5.24510        1.09218        3.78108
H          5.13874        0.11443        2.27691
H          9.27384       -0.74973        2.93438
H          8.95776       -2.48252        2.62049
H          7.56590       -3.97858        3.29767
H          6.42145       -6.04167        4.01311
H          6.25627       -6.60216        6.43865
H          7.25459       -5.12355        8.14607
H          8.91146       -3.95189        9.28663
H          7.38411       -2.99162        9.23838
H          8.96458       -2.16478        9.43060
H         10.86037       -3.08963        4.38635
H         10.86823       -2.44817        6.06513
H         11.87063       -1.91480        2.60009
H         13.20873       -0.01113        1.73667
H         13.62348        1.96823        3.20389
H         12.72278        2.01364        5.50912
H         11.54157        1.09212        7.27873
H         11.69367       -0.66704        7.41248
H         10.16737        0.05248        6.87049
