62

C          1.28926        0.69583        0.11171
C          2.71296        0.19157       -0.13745
C          3.27910        0.67073       -1.48095
C          4.68341        0.15508       -1.71867
O          5.15029        0.71792       -2.99474
C          6.44290        0.56209       -3.26923
O          7.27388        0.00070       -2.58572
C          6.76339        1.20238       -4.63788
C          8.23122        1.32493       -4.79622
N          8.99438        0.38418       -5.37697
N         10.25518        0.75918       -5.27568
N         10.29572        1.91033       -4.65038
N          9.03443        2.30891       -4.32677
C          8.72726        3.62970       -3.68901
C          7.66672        3.57091       -2.62005
C          6.43773        4.19785       -2.87282
C          5.43202        4.21105       -1.90847
C          5.66261        3.59720       -0.67598
C          6.88866        2.98177       -0.41827
C          7.91366        2.95237       -1.37414
C          9.21450        2.25911       -1.06539
C         11.54980        2.64022       -4.35193
C         12.77526        1.84680       -4.79947
C         14.05982        2.62041       -4.47759
C         15.31393        1.84218       -4.92117
N         16.53990        2.55610       -4.63094
C         17.10931        3.52348       -5.43627
C         18.18169        4.06970       -4.75777
C         18.26101        3.42022       -3.49376
C         17.23470        2.49683       -3.43838
H          0.90579        0.34104        1.07733
H          0.59923        0.34544       -0.66914
H          1.24937        1.79496        0.12129
H          2.72591       -0.91024       -0.10487
H          3.37392        0.52686        0.67961
H          3.29311        1.77237       -1.51009
H          2.62425        0.34140       -2.30324
H          4.72309       -0.94103       -1.80063
H          5.38709        0.46860       -0.93528
H          6.23725        2.15773       -4.73726
H          6.40093        0.52710       -5.42636
H          8.42601        4.30162       -4.50443
H          9.68177        3.99316       -3.28841
H          6.27121        4.69047       -3.83384
H          4.48181        4.70229       -2.11618
H          4.88808        3.60142        0.09147
H          7.06361        2.51241        0.55114
H          9.27302        1.99582       -0.00338
H         10.08623        2.89549       -1.28654
H          9.31181        1.32182       -1.63510
H         11.56782        2.81605       -3.26550
H         11.49336        3.61228       -4.86543
H         12.70937        1.64655       -5.87915
H         12.78054        0.86791       -4.29681
H         14.13294        2.81882       -3.39644
H         14.05788        3.60023       -4.98097
H         15.27306        1.64296       -6.00289
H         15.35287        0.86516       -4.41610
H         16.71772        3.72199       -6.42909
H         18.84848        4.83653       -5.13866
H         19.00133        3.59223       -2.71935
H         16.95341        1.78810       -2.66586
