74

C         13.76483       -0.98131        5.80009
C         12.64110       -0.68226        4.80588
C         12.95684        0.49354        3.87635
C         11.81228        0.84833        2.92313
C         12.14785        1.99893        1.97069
C         10.98012        2.41031        1.06795
C         11.35223        3.53826        0.09996
C         10.19647        3.96228       -0.79028
O         10.67170        4.97058       -1.70042
C          9.66208        5.43927       -2.58136
C         10.30148        6.42451       -3.53449
C         11.17062        5.94366       -4.49505
C         11.60952        4.51660       -4.68544
C         13.11078        4.29545       -4.32410
C         13.91004        3.55513       -5.39877
C         14.08302        4.33904       -6.68920
O         13.60481        5.44324       -6.90828
O         14.82104        3.76418       -7.65486
N         11.75413        6.82924       -5.37230
C         11.56169        8.15453       -5.39712
C         10.71928        8.71795       -4.40360
C         10.08472        7.84159       -3.44745
C          9.28204        8.43802       -2.43926
C          9.11145        9.80740       -2.38183
C          9.72729       10.65840       -3.32804
C         10.51681       10.12314       -4.32162
C         12.22680        8.92350       -6.50094
C         11.24022        9.27960       -7.64278
C         11.87003       10.14647       -8.74259
C         12.86737        9.39263       -9.62807
S         13.55805       10.51790      -10.85750
O         12.51875       10.91248      -11.78602
O         14.36527       11.48898      -10.16318
O         14.57012        9.51380      -11.63887
H         13.51528       -1.83517        6.44448
H         13.95744       -0.11708        6.45297
H         14.70514       -1.21954        5.28103
H         11.70915       -0.46871        5.35593
H         12.43505       -1.57926        4.19789
H         13.86493        0.26121        3.29200
H         13.20857        1.38002        4.48496
H         10.91797        1.11235        3.51410
H         11.53401       -0.04337        2.33438
H         13.00967        1.71205        1.34277
H         12.47800        2.87440        2.55626
H         10.12880        2.72505        1.69555
H         10.63126        1.53251        0.49687
H         12.19061        3.21533       -0.53963
H         11.70738        4.41605        0.66294
H          9.36069        4.36851       -0.18889
H          9.80235        3.10175       -1.36699
H          8.82796        5.89704       -2.02323
H          9.22020        4.59998       -3.15620
H         11.43440        4.24395       -5.73862
H         10.98319        3.85607       -4.07923
H         13.17215        3.73318       -3.38400
H         13.60052        5.25911       -4.12545
H         13.44427        2.58624       -5.64882
H         14.91661        3.31299       -5.01847
H         15.16387        2.89843       -7.36607
H         12.43677        6.40171       -6.04027
H          8.80321        7.81301       -1.68813
H          8.49726       10.24006       -1.59150
H          9.58274       11.73677       -3.26491
H         11.00158       10.78120       -5.04145
H         13.06273        8.32741       -6.89507
H         12.66216        9.84859       -6.09508
H         10.38341        9.82333       -7.21901
H         10.83377        8.35169       -8.07600
H         12.36894       11.01832       -8.29176
H         11.06419       10.53889       -9.37958
H         12.38808        8.57493      -10.18407
H         13.73178        8.99675       -9.07739
H         14.23111        9.41789      -12.55009
