101

C          1.12523        1.07612       -0.42272
C          2.53033        0.63017       -0.00884
C          2.97987       -0.67192       -0.68162
C          4.40722       -1.09055       -0.31524
C          4.85929       -2.40024       -0.96999
C          6.30383       -2.78043       -0.63095
C          6.77947       -4.08409       -1.28054
C          8.23901       -4.41690       -0.95708
C          8.74979       -5.71467       -1.59186
C         10.22854       -5.97709       -1.29160
C         10.78013       -7.27759       -1.88624
C         12.27571       -7.45737       -1.60592
C         12.87856       -8.75458       -2.15741
C         14.38264       -8.84976       -1.87674
C         15.04035      -10.13867       -2.38513
C         16.54006      -10.12139       -2.07758
N         17.25761      -11.34442       -2.53676
C         17.24026      -12.40487       -1.65405
C         17.82541      -13.59529       -1.96409
C         18.48453      -13.75564       -3.20704
C         18.50875      -12.64015       -4.11721
C         17.85176      -11.42676       -3.75257
C         17.78104      -10.24171       -4.67701
C         18.88932       -9.17949       -4.47351
O         20.13284       -9.86413       -4.64431
C         18.71839       -8.02533       -5.45674
C         19.19468      -12.78851       -5.35059
C         19.82008      -13.97775       -5.68322
C         19.76814      -15.07400       -4.78460
C         19.11935      -14.96290       -3.57223
C         20.56819      -14.10329       -6.99066
O         21.00223      -15.43082       -7.15631
C         21.73887      -15.64696       -8.36896
C         22.12051      -17.11586       -8.44506
C         22.92379      -17.45977       -9.70455
C         23.28860      -18.94609       -9.79458
C         24.09971      -19.30378      -11.04377
C         24.45777      -20.79154      -11.13907
C         25.27631      -21.13946      -12.38475
H          0.82920        2.00262        0.08806
H          0.37452        0.30920       -0.18043
H          1.06891        1.26147       -1.50568
H          2.56966        0.50363        1.08633
H          3.25435        1.42837       -0.24438
H          2.90403       -0.55951       -1.77785
H          2.27800       -1.48146       -0.41323
H          4.49021       -1.18508        0.78208
H          5.10515       -0.28319       -0.60038
H          4.75220       -2.31621       -2.06608
H          4.18178       -3.21650       -0.66381
H          6.41181       -2.86086        0.46529
H          6.97478       -1.95844       -0.93718
H          6.65466       -4.01446       -2.37566
H          6.12995       -4.91570       -0.95535
H          8.36429       -4.47666        0.13876
H          8.87989       -3.57906       -1.28472
H          8.59868       -5.67406       -2.68493
H          8.14273       -6.56453       -1.23349
H         10.37961       -5.98950       -0.19778
H         10.82687       -5.12756       -1.66607
H         10.60571       -7.28971       -2.97639
H         10.22021       -8.13733       -1.47846
H         12.44691       -7.41708       -0.51569
H         12.82555       -6.59710       -2.02711
H         12.70074       -8.81523       -3.24487
H         12.36272       -9.62285       -1.71292
H         14.55378       -8.76103       -0.78985
H         14.88866       -7.98045       -2.33291
H         14.87988      -10.24754       -3.47042
H         14.57499      -11.01925       -1.91349
H         16.71117      -10.05834       -0.99488
H         17.02437       -9.24696       -2.52174
H         16.73259      -12.21648       -0.71131
H         17.79103      -14.41271       -1.24444
H         16.80414       -9.75073       -4.58808
H         17.84406      -10.59987       -5.71143
H         18.82865       -8.78802       -3.43918
H         20.85300       -9.21630       -4.58337
H         18.78036       -8.38447       -6.49330
H         19.50625       -7.27391       -5.30640
H         17.75278       -7.51925       -5.31589
H         19.26489      -11.94622       -6.03652
H         20.25671      -16.00272       -5.07578
H         19.09137      -15.80612       -2.88091
H         21.42773      -13.39927       -6.98504
H         19.90807      -13.79087       -7.82670
H         22.63859      -15.00125       -8.37297
H         21.11490      -15.35490       -9.23608
H         21.19976      -17.72042       -8.41083
H         22.70237      -17.37659       -7.54615
H         23.84739      -16.85582       -9.73101
H         22.34715      -17.17293      -10.60109
H         22.36357      -19.54876       -9.77393
H         23.85788      -19.23659       -8.89414
H         25.02772      -18.70506      -11.06070
H         23.53408      -19.00757      -11.94501
H         23.53020      -21.38880      -11.12791
H         25.01718      -21.08786      -10.23552
H         24.72960      -20.88817      -13.30591
H         25.51433      -22.21120      -12.42349
H         26.22792      -20.58760      -12.40508
