51

C          2.29258       -1.57599        0.50813
C          3.11582       -0.30806        0.74872
C          3.45739        0.43667       -0.54605
C          4.26031        1.72131       -0.29531
N          4.63743        2.43683       -1.51707
C          3.87893        3.40492       -2.10574
O          4.15448        3.90225       -3.20250
C          2.63341        3.90196       -1.34295
C          1.90565        4.97420       -2.16922
C          2.64338        6.32211       -2.24660
C          2.25265        7.03605       -0.96241
N          0.72970        6.70726       -0.83486
C          0.53932        5.37637       -1.59770
C         -0.26847        7.76111       -1.28415
C         -0.64500        8.74114       -0.17311
C         -1.75289        9.67962       -0.64439
Br        -2.25674       10.90646        0.78937
C          2.62241        8.52438       -0.86089
C          4.07088        8.66611       -0.92535
C          5.27407        8.76426       -0.97162
C          5.81539        1.94957       -2.23451
H          2.07149       -2.09323        1.45076
H          2.82869       -2.28298       -0.14124
H          1.33292       -1.34455        0.02288
H          4.04996       -0.56832        1.27391
H          2.56651        0.36717        1.42793
H          2.53055        0.68593       -1.09108
H          4.03044       -0.22738       -1.21266
H          5.19185        1.48066        0.24061
H          3.69764        2.39583        0.36553
H          2.92803        4.27918       -0.34897
H          1.94995        3.05883       -1.15592
H          1.76977        4.57496       -3.18215
H          2.31458        6.90128       -3.12460
H          3.72702        6.19773       -2.33329
H          2.69883        6.51822       -0.10019
H          0.53774        6.53963        0.15931
H         -0.18099        5.58166       -2.39680
H          0.09559        4.65186       -0.90382
H         -1.16168        7.20833       -1.60340
H          0.14982        8.25356       -2.17182
H          0.21516        9.33962        0.15300
H         -1.00086        8.17893        0.70678
H         -2.66723        9.14121       -0.91927
H         -1.43477       10.30815       -1.48407
H          2.26757        8.95362        0.08947
H          2.16355        9.10408       -1.67899
H          6.33817        8.87590       -1.01871
H          5.62922        0.96715       -2.69419
H          6.65751        1.85889       -1.53534
H          6.06187        2.66216       -3.02637
