78

C          0.27271        1.89585        4.42101
C         -0.52766        1.42398        3.23816
C         -1.48391        0.40487        3.37732
C         -2.28210        0.01033        2.30649
C         -2.16230        0.61143        1.04324
C         -1.16050        1.58648        0.88419
C         -0.36416        1.98441        1.96372
C         -3.15920        0.26455       -0.04995
C         -4.00552        1.46503       -0.58523
C         -3.36357        2.03156       -1.87823
N         -3.78302        3.34978       -2.30512
C         -3.71202        4.30558       -1.21696
C         -4.58825        3.93253       -0.00747
N         -4.11788        2.55154        0.48984
C         -4.84497        2.07362        1.73392
C         -4.37275        2.83384        2.96907
C         -4.72875        2.10320        4.26896
N         -4.02337        2.71326        5.38854
C         -4.20096        1.96843        6.65020
C         -3.56065        2.67908        7.81575
C         -2.39508        2.19640        8.42174
C         -1.81909        2.83760        9.52106
C         -2.41486        3.99305       10.03150
C         -3.57243        4.50227        9.44114
C         -4.13826        3.84966        8.34258
O         -5.27737        4.32005        7.72213
C         -6.09563        3.98781       -0.28129
C         -6.56239        5.39028       -0.70715
C         -8.08807        5.52422       -0.69357
C         -8.55771        6.93121       -1.10018
N         -9.99977        7.08065       -1.05383
C        -10.86662        6.80167       -2.09142
C        -12.15931        6.94667       -1.62372
C        -12.07521        7.31675       -0.25204
C        -10.73401        7.38708        0.07462
H          0.73486        1.05133        4.95104
H         -0.37939        2.41411        5.14119
H          1.06926        2.58806        4.12273
H         -1.61516       -0.07723        4.34803
H         -3.02527       -0.77695        2.45552
H         -0.96941        2.03255       -0.09419
H          0.40203        2.74599        1.80657
H         -3.82595       -0.52561        0.31849
H         -2.64197       -0.16215       -0.92386
H         -5.03661        1.14442       -0.78743
H         -3.55494        1.30319       -2.67840
H         -2.26925        2.05632       -1.74483
H         -4.68869        3.34940       -2.77239
H         -3.99575        5.30416       -1.57121
H         -2.65859        4.38105       -0.89432
H         -4.35168        4.61127        0.82638
H         -3.13613        2.68232        0.80814
H         -4.60575        1.01194        1.84147
H         -5.92118        2.15480        1.54873
H         -4.78503        3.85499        2.98990
H         -3.27407        2.92495        2.94441
H         -4.38898        1.05666        4.19292
H         -5.83300        2.06521        4.40033
H         -4.37014        3.66408        5.53733
H         -3.72790        0.98125        6.52699
H         -5.27321        1.78874        6.87440
H         -1.94026        1.28559        8.02573
H         -0.91800        2.43444        9.98219
H         -1.98271        4.50174       10.89348
H         -4.04232        5.40689        9.83597
H         -5.61506        5.07916        8.22456
H         -6.64794        3.71668        0.62963
H         -6.38574        3.25076       -1.04753
H         -6.18386        5.63009       -1.71405
H         -6.12276        6.14248       -0.02851
H         -8.47615        5.30039        0.31311
H         -8.54272        4.78648       -1.37408
H         -8.22038        7.16712       -2.12104
H         -8.11060        7.68639       -0.43480
H        -10.48900        6.54132       -3.07536
H        -13.06326        6.82081       -2.21031
H        -12.90239        7.52799        0.41778
H        -10.23943        7.64259        1.00648
