58

C          2.61124       -0.69751       -1.70574
C          2.27924        0.43417       -0.75252
O          3.18135        1.57928       -0.96428
C          4.30109        1.60425       -0.22547
O          4.63754        0.79860        0.61462
C          5.17190        2.80126       -0.62136
N          6.10466        3.14255        0.44569
C          6.28424        4.48104        0.49388
N          7.23844        5.00537        1.27792
C          7.96800        4.26521        2.33136
C          9.25167        3.62516        1.80026
O          8.88458        2.63642        0.82860
C          8.25331        5.21820        3.50177
C          6.99867        5.72027        4.22132
N          5.40930        5.13649       -0.30117
C          4.44342        4.13637       -0.83749
C          5.21937        6.59701       -0.59878
C          5.27262        6.82628       -2.13204
C          6.62195        6.70767       -2.87433
C          7.28107        5.32082       -2.79950
C          6.40912        7.11441       -4.34085
C          3.82833        7.03965       -0.04131
O          2.70518        6.47598       -0.70348
C          6.24806        7.50711        0.09146
H          1.88288       -1.50893       -1.56885
H          3.61040       -1.10681       -1.50801
H          2.55736       -0.36694       -2.75124
H          2.36297        0.12674        0.29726
H          1.28312        0.85293       -0.93792
H          5.72417        2.50612       -1.53383
H          6.90797        2.54155        0.64626
H          7.30701        6.01416        1.30952
H          7.30330        3.45782        2.68222
H          9.78561        3.16252        2.64647
H          9.90381        4.39440        1.34976
H          9.66273        2.11008        0.59070
H          8.85884        6.06677        3.13756
H          8.89381        4.68116        4.21638
H          6.33767        6.30146        3.56156
H          7.27201        6.37186        5.06044
H          6.41062        4.88429        4.62531
H          4.21931        4.32438       -1.89014
H          3.49986        4.18375       -0.27755
H          4.89686        7.85100       -2.29236
H          4.53673        6.17245       -2.62461
H          7.32454        7.43769       -2.43608
H          6.59655        4.53268       -3.15091
H          7.61796        5.05496       -1.78935
H          8.16564        5.29113       -3.45027
H          5.73449        6.41163       -4.85400
H          7.36099        7.11894       -4.88859
H          5.97168        8.11936       -4.42412
H          3.79014        8.14096       -0.06254
H          3.76664        6.72490        1.01278
H          2.41050        7.07586       -1.40459
H          7.28562        7.26300       -0.16895
H          6.11997        7.53464        1.18442
H          6.08048        8.53214       -0.26201
