58

C          4.29025        3.06960       -0.82293
C          4.40645        1.67421       -0.20430
C          5.15660        0.67750       -1.09583
C          5.27574       -0.72014       -0.47710
C          6.00496       -1.72069       -1.38582
C          6.08385       -3.09494       -0.73987
O          6.69595       -4.08850       -1.64428
C          8.01776       -4.21163       -1.59743
O          8.78853       -3.59338       -0.88405
C          8.50775       -5.28118       -2.57999
N          9.94932       -5.33682       -2.42769
C         10.79300       -6.05234       -3.17232
N         12.12070       -6.02813       -3.03248
C         12.77445       -6.88863       -4.02631
C         11.57185       -7.74358       -4.54374
N         10.41616       -6.88311       -4.17167
C         11.40104       -9.15580       -3.96430
C         10.15030       -9.87295       -4.49523
N          8.90209       -9.21358       -4.03516
C         13.98700       -7.61221       -3.44764
C         15.11358       -6.65906       -2.92407
N         14.54885       -5.85859       -1.78960
N         16.26047       -7.50261       -2.63236
N         15.60392       -5.66288       -3.86249
H          3.74484        3.75661       -0.16173
H          3.75322        3.03807       -1.78252
H          5.28111        3.50830       -1.01252
H          3.39802        1.28070        0.00863
H          4.91586        1.74291        0.77181
H          6.16588        1.06833       -1.31356
H          4.64336        0.60291       -2.07041
H          4.26699       -1.10221       -0.24379
H          5.80535       -0.64700        0.48812
H          7.02205       -1.35642       -1.59949
H          5.47838       -1.80467       -2.34981
H          5.08813       -3.51182       -0.54486
H          6.66638       -3.07804        0.19043
H          8.20977       -5.00060       -3.60321
H          8.02204       -6.23969       -2.33753
H         10.29933       -4.65743       -1.74513
H         12.72622       -5.55198       -2.33950
H         13.11719       -6.25824       -4.86773
H         11.62262       -7.81397       -5.63994
H          9.52160       -7.41404       -4.11504
H         11.36885       -9.11627       -2.86212
H         12.28004       -9.76083       -4.23255
H         10.19529      -10.93653       -4.20807
H         10.15282       -9.84272       -5.59540
H          8.69872       -9.48924       -3.07191
H          8.10948       -9.53701       -4.59156
H         14.43836       -8.24282       -4.22600
H         13.67507       -8.27753       -2.62573
H         14.46272       -6.45473       -0.96332
H         15.23181       -5.13181       -1.55838
H         16.04554       -8.24158       -1.96384
H         17.03558       -6.94340       -2.27436
H         14.88323       -5.01341       -4.17260
H         16.04174       -6.10479       -4.66927
