67

C          0.34714       -0.18934        0.07605
C          1.83554       -0.54430        0.04253
C          2.56122       -0.24378        1.35845
C          4.05501       -0.58081        1.32784
C          4.77803       -0.28246        2.64464
C          6.26854       -0.63380        2.62036
C          6.98823       -0.34060        3.93960
C          8.46765       -0.73472        3.92686
C          9.15898       -0.55478        5.27956
C         10.62376       -1.00716        5.26803
C         11.22779       -1.01985        6.68371
C         12.63148       -1.58791        6.96681
O         13.71076       -0.67668        6.63929
C         13.96379       -0.52469        5.25075
C         14.40845       -1.84547        4.61509
N         13.29607       -2.89032        4.95281
C         13.02210       -2.98774        6.44404
C         12.11433       -4.20050        6.76851
C         10.85227       -4.38505        5.95046
C         10.91378       -4.92744        4.65632
C          9.75523       -5.04955        3.88401
C          8.52393       -4.65405        4.40328
C          8.42287       -4.15721        5.71359
C          9.59745       -4.03229        6.46716
C          7.08396       -3.77874        6.28811
N         15.63927       -2.38794        5.08231
H         -0.14299       -0.41661       -0.88020
H          0.19633        0.88098        0.28055
H         -0.18024       -0.75214        0.86087
H          2.32796        0.00733       -0.77626
H          1.95575       -1.61376       -0.20111
H          2.07659       -0.80528        2.17711
H          2.43292        0.82385        1.60996
H          4.53909       -0.01681        0.51104
H          4.18421       -1.64804        1.07353
H          4.28731       -0.83784        3.46414
H          4.65910        0.78669        2.89355
H          6.76286       -0.08067        1.80275
H          6.38713       -1.70405        2.37243
H          6.47757       -0.87779        4.75874
H          6.89309        0.73147        4.18313
H          8.99718       -0.14689        3.15648
H          8.55914       -1.79121        3.61960
H          8.61533       -1.13260        6.04536
H          9.10341        0.49960        5.59835
H         11.18443       -0.34400        4.59136
H         10.64149       -2.01842        4.82471
H         10.53468       -1.57644        7.33340
H         11.23969        0.00573        7.08481
H         12.71363       -1.66485        8.06191
H         14.78486        0.19880        5.15996
H         13.09415       -0.11472        4.71297
H         14.39573       -1.77181        3.51842
H         13.64086       -3.79956        4.61937
H         12.40955       -2.69147        4.45935
H         14.01018       -3.20252        6.87584
H         11.86750       -4.12467        7.83787
H         12.74055       -5.10240        6.67099
H         11.85859       -5.30921        4.25785
H          9.81309       -5.47277        2.88085
H          7.62322       -4.75385        3.79498
H          9.52918       -3.65242        7.48955
H          6.45556       -4.66958        6.43561
H          6.53772       -3.10972        5.60862
H          7.18353       -3.27565        7.25774
H         15.99730       -1.93972        5.92296
H         16.36169       -2.45231        4.37241
