53

C          1.61921        0.26382       -2.56393
C          2.88856        0.17659       -1.71431
C          3.54943        1.53930       -1.48558
C          4.83131        1.47158       -0.65014
C          5.47577        2.84296       -0.42669
C          6.76677        2.79141        0.39584
C          7.38795        4.17669        0.61812
C          8.68353        4.11206        1.43325
C          9.38948        5.45093        1.70711
N          9.80005        6.11140        0.44778
C          9.15597        7.19237        0.07456
S          8.02115        7.76264        1.21236
C          8.54184        6.50815        2.47453
C          9.28527        7.21291        3.61238
C          9.57033        6.22737        4.74706
O          9.15969        5.08020        4.75086
O         10.31865        6.80473        5.69225
C         10.64719        5.99169        6.87631
C          9.59626        6.16499        7.95397
C          9.38298        7.86494       -1.24675
C         10.86207        8.07823       -1.57500
F         11.50690        6.82767       -1.64314
H          1.16534       -0.72533       -2.71162
H          1.83392        0.68285       -3.55821
H          0.86493        0.90832       -2.08873
H          3.61215       -0.50060       -2.19845
H          2.65128       -0.27991       -0.73880
H          2.82757        2.21417       -0.99252
H          3.77592        2.00066       -2.46321
H          5.55610        0.80244       -1.14565
H          4.60858        1.00886        0.32690
H          4.75031        3.50689        0.07546
H          5.68668        3.30814       -1.40605
H          7.50004        2.13902       -0.10861
H          6.56364        2.32378        1.37409
H          6.64703        4.81806        1.12515
H          7.57761        4.64032       -0.36600
H          9.40453        3.44247        0.93459
H          8.49535        3.66953        2.42394
H         10.30371        5.24875        2.28456
H         10.51779        5.71184       -0.16205
H          7.62534        6.04145        2.85603
H          8.68586        8.04124        4.02030
H         10.23017        7.65935        3.26744
H         11.62485        6.37755        7.18789
H         10.74382        4.94654        6.55731
H          9.48219        7.22125        8.22978
H          9.90585        5.61111        8.85095
H          8.62494        5.76866        7.63177
H          8.86793        8.83520       -1.26435
H          8.92716        7.24026       -2.03313
H         11.37763        8.67469       -0.80855
H         10.96460        8.56270       -2.55499
