36

C          1.35804        0.27738        1.32485
C          2.43148       -0.12591        0.63938
N          3.30549       -1.13286        1.09805
C          4.57188       -1.34933        0.66372
N          5.19297       -0.33826        0.03547
N          5.14922       -2.54741        0.89437
Si         4.16054       -4.04362        1.38832
C          3.16656       -3.65916        2.94491
C          3.07308       -4.45315       -0.07242
C          5.38529       -5.39124        1.81289
C          6.60108       -2.69368        0.69237
C          7.04452       -3.42827       -0.59513
C          6.75868       -2.67255       -1.90634
F          7.22342       -1.38364       -1.87623
F          7.35055       -3.28538       -2.94895
F          5.42426       -2.60939       -2.15877
O          8.42876       -3.62359       -0.42286
H          0.68190        1.00952        0.89086
H          1.11453       -0.10780        2.31557
H          2.66344        0.25783       -0.35523
H          2.97756       -1.72633        1.85754
H          4.79916        0.59384        0.08002
H          6.00119       -0.47920       -0.56108
H          2.17401       -3.21974        2.76390
H          3.71596       -3.03534        3.66412
H          2.97304       -4.61891        3.44753
H          2.36489       -3.64315       -0.29446
H          2.48694       -5.35805        0.14379
H          3.66715       -4.64342       -0.97617
H          6.02377       -5.12783        2.66701
H          6.02534       -5.71503        0.98378
H          4.79060       -6.26619        2.11617
H          7.01281       -3.28919        1.51624
H          7.09922       -1.71673        0.74791
H          6.49391       -4.38271       -0.69326
H          8.78518       -4.13754       -1.16709
