39

C          0.95503       -0.30419        0.15451
C          2.47503       -0.12857        0.17276
C          2.99693        0.74737       -0.97188
C          4.51600        0.94216       -0.94519
C          5.03766        1.83694       -2.07472
C          6.55294        2.05697       -2.01414
C          7.06303        3.00257       -3.10525
C          8.59111        3.23436       -3.00495
C          9.08008        4.23417       -3.98703
N          9.60639        3.94455       -5.16408
N          9.84743        5.14960       -5.73573
C          9.49209        6.16456       -4.95494
N          8.99696        5.61907       -3.83165
C          8.48876        6.34021       -2.63691
C          8.48463        7.85102       -2.79950
H          0.61451       -0.93986        0.98289
H          0.61734       -0.77129       -0.78240
H          0.43966        0.66347        0.24559
H          2.96251       -1.11671        0.12376
H          2.78417        0.31269        1.13536
H          2.50160        1.73372       -0.93006
H          2.70056        0.30163       -1.93750
H          5.01350       -0.04170       -0.99904
H          4.80990        1.37673        0.02638
H          4.52500        2.81424       -2.03046
H          4.76840        1.39623       -3.04981
H          7.07292        1.08756       -2.09791
H          6.82391        2.46393       -1.02425
H          6.52848        3.96510       -3.03273
H          6.83414        2.59861       -4.10370
H          9.12848        2.29661       -3.19997
H          8.85992        3.55383       -1.98578
H         10.26293        5.19468       -6.66407
H          9.59050        7.21906       -5.18490
H          9.12388        6.03375       -1.79354
H          7.47583        5.95998       -2.44930
H          9.49486        8.25906       -2.94046
H          8.08446        8.29341       -1.87901
H          7.83771        8.17805       -3.62498
