77

C         16.22614        2.65762        3.53831
C         15.07490        2.33785        2.58121
C         15.19348        0.95224        1.93755
C         14.06368        0.62422        0.95607
C         14.17745       -0.77793        0.35009
C         13.08286       -1.10614       -0.67049
C         13.17439       -2.53856       -1.20522
C         12.11887       -2.88233       -2.26170
C         12.19113       -4.34680       -2.70488
C         11.17248       -4.71837       -3.79086
C         11.26414       -6.19116       -4.19172
C         10.89986       -7.19633       -3.06402
C         10.40480       -8.37585       -3.81441
N         10.15158       -8.09246       -5.03959
C         10.36430       -6.66206       -5.39306
C          9.02463       -5.95043       -5.46372
C          7.83563       -6.43456       -5.10244
C         11.06899       -6.60138       -6.76765
C         10.41693       -7.49365       -7.82197
O          9.89179       -8.57778       -7.55723
O         10.54157       -6.99670       -9.04094
C         10.08264       -7.83966      -10.16777
C          8.60346       -7.65372      -10.46353
C          8.17330       -8.54798      -11.63613
C          6.68125       -8.44060      -11.96929
C          6.25580       -9.36738      -13.11287
C          4.76712       -9.27593      -13.46237
C          4.34981      -10.21682      -14.59832
C          2.86345      -10.12567      -14.95131
H         16.11183        3.65341        3.98797
H         17.19522        2.63805        3.01765
H         16.27839        1.92705        4.35938
H         15.02985        3.10413        1.78880
H         14.11518        2.40616        3.12119
H         15.22258        0.18463        2.73144
H         16.16270        0.87758        1.41273
H         14.05418        1.37450        0.14611
H         13.09094        0.72194        1.46965
H         14.15563       -1.52684        1.16182
H         15.16526       -0.88701       -0.13224
H         13.13969       -0.39314       -1.51154
H         12.09135       -0.95190       -0.20950
H         13.08449       -3.24424       -0.36030
H         14.17949       -2.70612       -1.63076
H         12.24308       -2.22309       -3.13796
H         11.11219       -2.67122       -1.86085
H         12.04470       -4.98745       -1.81805
H         13.20819       -4.56818       -3.07355
H         11.34871       -4.08906       -4.67891
H         10.15099       -4.49045       -3.44459
H         12.30620       -6.40644       -4.48581
H         10.09174       -6.82887       -2.40321
H         11.73744       -7.45801       -2.40333
H         10.25539       -9.38752       -3.42899
H          9.85927       -8.70114       -5.84886
H          9.09622       -4.93529       -5.86300
H          7.69213       -7.44311       -4.71198
H          6.93825       -5.82454       -5.19654
H         12.11222       -6.94440       -6.66812
H         11.10650       -5.56537       -7.12578
H         10.31896       -8.88325       -9.92157
H         10.71356       -7.50361      -10.99927
H          8.40440       -6.59579      -10.69649
H          8.01398       -7.90979       -9.56923
H          8.41553       -9.59822      -11.39826
H          8.76625       -8.29382      -12.53133
H          6.43733       -7.39637      -12.23047
H          6.08860       -8.67552      -11.06790
H          6.50330      -10.41000      -12.84599
H          6.85511       -9.13661      -14.01087
H          4.51928       -8.23607      -13.73992
H          4.16521       -9.49984      -12.56382
H          4.59871      -11.25438      -14.31766
H          4.95531       -9.99397      -15.49299
H          2.23062      -10.37823      -14.08748
H          2.60175      -10.81499      -15.76559
H          2.58970       -9.11065      -15.27525
