85

C          2.89409        1.12514       -4.08700
C          3.54884        2.46400       -4.43330
C          4.25125        3.11112       -3.23094
C          4.86702        4.44778       -3.61263
O          5.49994        5.11276       -2.46111
C          6.76643        4.78764       -2.19696
O          7.45310        3.98658       -2.80404
C          7.26457        5.58142       -0.97868
N          8.67403        5.31398       -0.70513
C          9.70845        6.26523       -1.16483
C         10.50380        5.65292       -2.31834
C         11.18423        4.35131       -1.86039
N         10.36057        3.71934       -0.80094
C          9.11815        4.07531       -0.45509
N          8.35752        3.12076        0.18003
C          7.43193        3.28777        1.19878
N          7.01021        4.36318        1.78692
N          6.07426        3.92790        2.74223
C          6.01956        2.62738        2.64261
O          6.87366        2.13403        1.65599
S          5.08923        1.45457        3.50218
C          4.20183        2.56570        4.66394
C          3.27880        1.70748        5.52406
C         12.62176        4.53110       -1.35510
C         13.33520        3.20925       -1.04048
C         14.76049        3.44084       -0.53577
S         15.66663        1.92087       -0.14588
C         15.13191        1.56750        1.53754
S         13.98677        2.49747        2.33229
N         15.75687        0.49661        2.07980
C         16.79773       -0.26864        1.36216
C         18.21830        0.31241        1.44783
C         18.85691        0.29916        2.84099
C         20.30251        0.80236        2.82197
C         15.44085        0.07588        3.46176
C         14.20147       -0.81893        3.59201
C         14.30342       -2.19314        2.92175
C         13.07054       -3.06231        3.18179
H          2.40220        0.68668       -4.96496
H          2.13260        1.24508       -3.30280
H          3.63653        0.39926       -3.72419
H          2.78601        3.15639       -4.82603
H          4.27950        2.31922       -5.24590
H          5.03847        2.43742       -2.85700
H          3.53051        3.26232       -2.41158
H          4.10391        5.16643       -3.93505
H          5.62418        4.33431       -4.39964
H          6.65175        5.35239       -0.09183
H          7.14821        6.65597       -1.16280
H         10.36037        6.50117       -0.30974
H          9.20092        7.18747       -1.46521
H         11.26718        6.36029       -2.66913
H          9.82205        5.45089       -3.15474
H         11.19838        3.64396       -2.70700
H         10.77587        2.92460       -0.32029
H          8.58678        2.15336       -0.03428
H          3.64818        3.30037        4.06680
H          4.95563        3.09183        5.26174
H          2.52915        1.18304        4.91688
H          2.74583        2.35533        6.23210
H          3.83900        0.96331        6.10570
H         12.62404        5.18380       -0.46607
H         13.17426        5.06512       -2.14487
H         13.35625        2.57159       -1.93858
H         12.81199        2.65318       -0.24469
H         14.75506        4.05215        0.37938
H         15.38257        3.93453       -1.29798
H         16.49329       -0.36005        0.30807
H         16.78282       -1.28511        1.77853
H         18.21786        1.33781        1.04705
H         18.84150       -0.28326        0.75900
H         18.83063       -0.72641        3.24779
H         18.26567        0.92343        3.52954
H         20.93133        0.18199        2.16650
H         20.74580        0.78196        3.82602
H         20.35831        1.83679        2.45310
H         15.29933        0.98747        4.05784
H         16.32819       -0.45000        3.83896
H         13.32646       -0.27125        3.20913
H         14.02875       -0.95612        4.67325
H         15.20220       -2.71707        3.28998
H         14.43969       -2.07093        1.83475
H         12.92659       -3.23420        4.25856
H         13.16044       -4.04388        2.69724
H         12.15770       -2.58246        2.79870
