74

C          3.41991        1.03056       -1.17458
C          3.90644        1.50173        0.19727
C          4.29117        0.33256        1.11524
C          4.78536        0.82952        2.46336
O          5.12369       -0.29077        3.36472
C          6.34489       -0.79596        3.25006
O          7.22316       -0.42902        2.48794
C          6.56482       -1.95542        4.23176
N          7.91984       -2.41589        3.99679
C          8.54245       -3.43333        4.60338
N          9.82328       -3.72087        4.27553
C         10.53758       -4.79116        4.99279
C         12.03127       -4.51065        4.99777
C         12.87746       -5.70011        5.46373
C         14.38087       -5.42949        5.30754
P         15.38150       -6.94499        5.46413
O         14.84690       -8.09329        4.69144
O         16.88781       -6.51462        5.09008
C         17.42540       -6.77087        3.75619
C         18.93363       -6.86441        3.85760
O         15.46075       -7.09995        7.05796
C         16.10698       -8.28496        7.62400
C         15.99955       -8.20608        9.13185
O         10.04182       -4.84341        6.32991
C          8.66491       -5.16034        6.34837
N          7.93245       -4.18649        5.51785
C          8.18350       -5.11909        7.81563
C          6.64774       -5.16560        7.90032
O          5.90562       -4.56114        7.12466
O          6.21120       -5.89191        8.92183
C          4.75376       -5.94533        9.14258
C          4.29608       -4.79808       10.02146
C          8.90223       -6.18551        8.64890
H          3.15039        1.88231       -1.81263
H          2.53308        0.38672       -1.08477
H          4.19894        0.45632       -1.69680
H          3.12197        2.10628        0.68146
H          4.77610        2.16745        0.07226
H          5.08130       -0.26572        0.63495
H          3.42241       -0.32806        1.26526
H          4.00508        1.36993        3.01292
H          5.67554        1.46417        2.36284
H          5.81409       -2.73869        4.03708
H          6.41761       -1.59411        5.26216
H          8.37527       -1.90118        3.23494
H         10.37542       -3.00165        3.81912
H         10.31897       -5.75405        4.49427
H         12.21468       -3.61970        5.62042
H         12.31725       -4.25285        3.96348
H         12.61772       -6.59065        4.86965
H         12.64805       -5.93790        6.51239
H         14.74710       -4.68043        6.02441
H         14.59752       -5.04735        4.29623
H         17.12471       -5.93614        3.10182
H         16.97968       -7.69817        3.37015
H         19.36223       -5.93926        4.26504
H         19.35919       -7.03000        2.85785
H         19.23282       -7.70229        4.50073
H         17.15844       -8.29352        7.29836
H         15.60580       -9.17784        7.22238
H         16.50270       -7.30980        9.51813
H         16.47588       -9.08851        9.58051
H         14.94927       -8.18427        9.45182
H          8.50684       -6.17400        5.92922
H          6.95561       -4.04009        5.83474
H          8.45351       -4.11609        8.19425
H          4.61095       -6.91772        9.62783
H          4.25955       -5.94115        8.16348
H          4.83078       -4.79404       10.97998
H          3.22412       -4.91586       10.23146
H          4.43808       -3.83030        9.52412
H          8.64974       -7.19774        8.30546
H          8.61657       -6.10744        9.70273
H          9.98699       -6.05104        8.57310
