36

O          4.52083        2.22848        5.22702
C          3.17597        2.35560        5.67454
C          2.29197        2.28619        4.42779
C          2.54431        0.97985        3.63696
N          1.44024        0.62452        2.70977
C          1.02571        1.56615        1.80049
N          0.35141        2.69709        2.06286
N          0.07092        3.41514        0.95323
C          0.58411        2.69972       -0.02399
N          1.18734        1.55605        0.44665
C          1.92035        0.54495       -0.32986
C          3.35527        1.00185       -0.61926
C          4.11676       -0.05459       -1.41421
F          3.51547       -0.29602       -2.60809
F          5.37948        0.34526       -1.65191
F          4.16546       -1.23327       -0.73823
C          0.54095       -0.43110        3.11320
O          0.77804       -1.05836        4.12007
C         -0.62889       -0.69948        2.19873
O          0.90568        2.45845        4.76081
H          5.11948        2.33607        5.98193
H          2.99205        3.31643        6.18384
H          2.89583        1.53498        6.36586
H          2.53590        3.15564        3.79601
H          2.61201        0.11918        4.31608
H          3.48767        1.05331        3.08091
H          0.10470        2.99178        3.02072
H          0.53394        2.96928       -1.07472
H          1.35891        0.36561       -1.25545
H          1.91842       -0.37966        0.25938
H          3.90625        1.17591        0.31538
H          3.36840        1.93123       -1.20508
H         -0.28624       -1.15731        1.25872
H         -1.19177        0.21103        1.94993
H         -1.29710       -1.40623        2.69932
H          0.64865        1.81279        5.44208
