64

C          3.04992       -4.60421       -2.15706
C          4.20254       -3.69845       -1.71867
C          4.51914       -3.80057       -0.22181
C          5.68202       -2.90059        0.20837
C          5.98904       -3.00179        1.69317
O          7.09549       -2.14313        1.99463
C          7.45018       -2.14982        3.35947
C          8.60436       -1.16584        3.53899
C          9.12140       -1.08828        4.99634
C          9.31630        0.36343        5.47946
C         10.51407        1.05459        4.83600
N         11.78166        0.25294        5.06489
C         11.60988       -1.15684        4.54199
C         10.44589       -1.84817        5.25357
C         10.40496       -3.35472        4.93746
C         11.62919       -4.11252        5.45079
O         11.76946       -3.80256        6.84953
C         13.04237       -3.98376        7.42199
C         13.92283       -2.73340        7.29451
F         13.24555       -1.59529        7.64644
F         15.01243       -2.82278        8.07523
F         14.35503       -2.52077        6.00885
C         13.02887        0.90856        4.51358
C         13.44528        2.15740        5.28299
C         14.75403        2.74445        4.70472
C         14.62736        3.13061        3.30525
C         14.49708        3.43657        2.14214
H          2.84750       -4.50334       -3.23187
H          2.12147       -4.35925       -1.62028
H          3.27543       -5.66296       -1.96041
H          3.96369       -2.64999       -1.96521
H          5.10889       -3.94526       -2.29753
H          4.74977       -4.85072        0.02960
H          3.61550       -3.54240        0.35774
H          5.45392       -1.84971       -0.03339
H          6.59061       -3.16192       -0.35878
H          6.24139       -4.04431        1.97328
H          5.11054       -2.70122        2.29820
H          7.74028       -3.17091        3.68393
H          6.59174       -1.84436        3.99435
H          8.24793       -0.17960        3.20304
H          9.40131       -1.44816        2.83272
H          8.36047       -1.53788        5.65531
H          9.43513        0.38213        6.57604
H          8.42562        0.96875        5.25796
H         10.67480        2.05552        5.25222
H         10.41141        1.14555        3.74507
H         11.91116        0.16215        6.08530
H         12.56383       -1.66478        4.71590
H         11.45393       -1.07169        3.45657
H         10.65158       -1.78220        6.33697
H         10.30725       -3.54191        3.85643
H          9.50542       -3.77371        5.41243
H         12.53961       -3.83400        4.89534
H         11.48455       -5.19864        5.32399
H         13.59991       -4.83620        6.99817
H         12.89840       -4.16324        8.49731
H         12.83543        1.13319        3.45555
H         13.81705        0.14401        4.56432
H         13.60793        1.91232        6.34489
H         12.66622        2.93108        5.23176
H         15.57485        2.01640        4.81651
H         15.03984        3.62132        5.30579
H         14.41358        3.72868        1.11566
