30

C          2.63288        1.10653        0.18067
C          3.09414        0.57544        1.53953
C          3.83967       -0.76282        1.42230
C          4.27810       -1.26474        2.78699
O          4.93493       -2.58922        2.68991
C          6.26712       -2.58653        2.50170
O          7.00379       -1.63089        2.40954
C          6.75232       -3.99290        2.42804
N          5.90579       -5.08663        2.52500
C          6.59274       -6.21661        2.42988
N          7.90255       -5.90826        2.27041
C          8.02431       -4.50799        2.26614
Br         9.58972       -3.54598        2.07491
C          8.87635       -7.08556        2.13873
O          8.35830       -8.16241        2.15668
C         10.32256       -6.77283        2.01117
H          2.10032        2.05973        0.29185
H          1.95143        0.39957       -0.31413
H          3.48597        1.27721       -0.49145
H          2.22353        0.45235        2.20433
H          3.75048        1.31655        2.02357
H          4.72250       -0.63923        0.77564
H          3.18558       -1.51269        0.94894
H          3.42586       -1.45157        3.45177
H          4.98494       -0.57866        3.27098
H          4.89757       -4.99966        2.65456
H          6.20847       -7.23044        2.46859
H         10.51556       -6.18287        1.10380
H         10.86210       -7.72391        1.96218
H         10.67420       -6.17897        2.86621
