93

C         16.84356        1.15899       -9.15482
C         16.34695        0.91036       -7.72825
C         16.67296        2.05355       -6.76034
C         16.18207        1.80626       -5.33072
C         16.51019        2.94174       -4.35582
C         16.01643        2.67925       -2.93049
C         16.33263        3.80661       -1.94254
C         15.72137        3.58077       -0.55738
C         16.05293        4.67264        0.46505
C         15.31547        4.47888        1.79281
C         15.69515        5.48314        2.88621
C         14.86127        5.29777        4.15733
C         15.31891        6.14405        5.35078
C         14.50790        5.83550        6.61610
C         15.10269        6.37819        7.91175
C         14.39651        5.86741        9.19236
N         14.43977        7.04569       10.07155
C         14.64629        8.15726        9.34495
N         14.53448        9.42316        9.80098
C         15.15791       10.58225        9.07884
O         14.73856       10.63349        7.76127
C         13.36777       11.09591        7.57217
C         13.07711       11.16316        6.08508
C         13.22094        9.82226        5.35443
C         12.71656        9.85751        3.90796
C         13.02536        8.57214        3.13571
C         12.45110        8.54117        1.71575
C         12.89128        7.30974        0.91872
C         12.25802        7.19848       -0.47140
C         12.79979        6.02080       -1.28797
C         12.12836        5.84898       -2.65464
C         12.72584        4.70885       -3.48305
Br        14.07863        9.68366       11.60452
N         14.96601        7.84607        8.08209
H         16.59168        0.32237       -9.82105
H         17.93633        1.28622       -9.18065
H         16.39597        2.06926       -9.58137
H         16.78747       -0.02479       -7.34334
H         15.25619        0.74603       -7.74032
H         16.23087        2.99093       -7.14221
H         17.76483        2.21959       -6.74829
H         16.62191        0.86625       -4.95324
H         15.08989        1.64289       -5.34264
H         16.06541        3.88165       -4.72823
H         17.60139        3.11023       -4.34292
H         16.45631        1.73694       -2.55897
H         14.92577        2.51169       -2.95158
H         15.96127        4.76379       -2.34922
H         17.42680        3.92314       -1.85359
H         16.05484        2.60432       -0.16376
H         14.62523        3.50275       -0.66113
H         15.79614        5.66056        0.04572
H         17.14224        4.69291        0.64263
H         15.50502        3.45751        2.16758
H         14.22880        4.53295        1.60875
H         15.57401        6.51234        2.50845
H         16.76649        5.37108        3.12832
H         14.89481        4.23428        4.45338
H         13.80280        5.51468        3.93437
H         15.24749        7.21556        5.09754
H         16.38627        5.94135        5.54659
H         14.44975        4.74002        6.73613
H         13.46882        6.19069        6.51531
H         16.17764        6.12938        7.95248
H         14.92658        5.02286        9.64536
H         13.35369        5.57338        8.98859
H         14.04598        7.07959       11.00574
H         16.25065       10.45391        9.06898
H         14.88116       11.47423        9.66343
H         13.27129       12.08443        8.05215
H         12.68463       10.39169        8.07789
H         13.72953       11.91848        5.61947
H         12.04591       11.53862        5.97996
H         12.67836        9.03604        5.91103
H         14.28414        9.52459        5.35012
H         13.17102       10.71481        3.38298
H         11.62898       10.04306        3.90657
H         12.64119        7.70331        3.70012
H         14.12059        8.43954        3.08629
H         12.75907        9.45328        1.17577
H         11.34904        8.57761        1.76673
H         12.65595        6.39813        1.49603
H         13.99001        7.32381        0.81591
H         12.42671        8.13643       -1.02842
H         11.16319        7.10226       -0.36700
H         12.68362        5.08849       -0.70713
H         13.88627        6.15102       -1.43166
H         12.20652        6.79363       -3.21863
H         11.04920        5.67406       -2.50823
H         13.78934        4.88692       -3.69890
H         12.20788        4.59468       -4.44500
H         12.65474        3.74765       -2.95252
H         15.12217        8.55715        7.37166
