56

N          1.16409        0.48005       -0.38004
C          2.58650        0.18329       -0.56820
C          3.03564       -0.92044        0.39392
C          4.50146       -1.31573        0.20160
C          4.95280       -2.42752        1.15081
C          6.43310       -2.82083        0.92280
C          6.92880       -3.79400        1.95350
C          6.59790       -5.13887        1.81759
C          6.95782       -6.10124        2.77826
C          6.59931       -7.47276        2.66863
C          6.96124       -8.35372        3.64742
N          7.66509       -7.89786        4.73735
C          8.05182       -6.62001        4.92214
C          7.71823       -5.67448        3.92422
C          8.09039       -4.31508        4.02851
C          7.70334       -3.37228        3.09004
C          8.10593       -1.94123        3.32713
C          7.03289       -1.05096        4.03048
C          6.45648       -1.67646        5.30037
O          7.54512       -1.97483        6.19075
O          7.58840        0.22948        4.28769
C          8.75894       -6.27881        6.20027
C          7.80358       -5.56931        7.19646
C          8.46484       -4.85767        8.33387
C          9.62959       -5.10742        8.94315
F         10.43289       -6.11854        8.60894
F         10.12121       -4.39462        9.93762
F          7.73494       -3.80992        8.81083
H          0.82086        1.09427       -1.11814
H          1.00948        0.97152        0.50168
H          3.25345        1.06228       -0.44806
H          2.71849       -0.16779       -1.60432
H          2.37826       -1.79297        0.25207
H          2.87890       -0.58116        1.43358
H          5.14715       -0.43211        0.34599
H          4.66249       -1.64163       -0.84062
H          4.31745       -3.31904        1.02162
H          4.81188       -2.10722        2.19623
H          7.04888       -1.91166        0.91726
H          6.52802       -3.27181       -0.07689
H          6.03252       -5.46265        0.94130
H          6.03284       -7.82975        1.80941
H          6.73007       -9.41578        3.63776
H          7.91481       -8.57342        5.45893
H          8.67539       -3.97294        4.88132
H          8.38005       -1.43485        2.39310
H          8.99931       -1.93309        3.96673
H          6.19396       -0.87398        3.33971
H          5.89141       -2.59431        5.05135
H          5.76034       -0.95481        5.75406
H          7.22860       -1.94263        7.10593
H          8.19115        0.13732        5.04675
H          9.60994       -5.62192        5.97244
H          9.18228       -7.18879        6.64806
H          7.05957       -6.29107        7.57463
H          7.23681       -4.79346        6.65981
