74

C          3.00381        6.76712        1.44889
C          3.20572        6.20435        2.85779
C          4.67794        5.95317        3.20376
C          4.89459        5.39278        4.61300
C          6.36922        5.16144        4.95812
C          6.59403        4.61819        6.37369
C          8.07556        4.38554        6.68907
C          8.29715        3.80413        8.07931
O          9.72089        3.55025        8.31163
C         10.19020        2.36901        7.88239
O          9.50482        1.48723        7.38706
C         11.69407        2.25346        8.09487
C         12.60074        2.72373        6.94233
O         12.40910        4.12743        6.77611
C         13.48300        4.71807        6.05114
C         13.54388        4.16195        4.63560
N         13.55764        2.66570        4.66007
C         12.51254        1.98746        5.56980
C         12.97532        0.51133        5.67366
C         11.89648       -0.56114        5.89135
C         12.52015       -1.92511        6.19698
C         11.14862        2.17527        4.87554
C         11.13745        1.75798        3.41050
O         12.21841        1.73545        2.74813
N          9.97293        1.42658        2.83560
C          8.67307        1.51105        3.52991
C          8.18801        0.19563        4.13782
C          9.99020        0.97349        1.42675
C         10.36955       -0.49991        1.26480
H          1.94168        6.95114        1.23798
H          3.37791        6.07192        0.68200
H          3.53726        7.72046        1.31882
H          2.64038        5.26331        2.96509
H          2.77560        6.90063        3.59750
H          5.24102        6.89742        3.09653
H          5.11229        5.25915        2.46144
H          4.33954        4.44448        4.72234
H          4.45470        6.08527        5.35150
H          6.92480        6.10800        4.83871
H          6.80901        4.45984        4.22501
H          6.03970        3.67178        6.49725
H          6.16353        5.32038        7.10749
H          8.64007        5.32688        6.59578
H          8.49287        3.68681        5.94550
H          7.74744        2.86383        8.21813
H          8.01993        4.51372        8.86840
H         11.91408        1.20189        8.31846
H         11.97757        2.85733        8.96619
H         13.63988        2.55133        7.29748
H         14.43831        4.54359        6.58413
H         13.29634        5.79906        6.02684
H         14.44305        4.49773        4.10170
H         12.66710        4.47191        4.05297
H         14.48931        2.31598        4.90903
H         13.21828        2.26029        3.67263
H         13.72123        0.44946        6.48594
H         13.51704        0.24833        4.74991
H         11.28067       -0.64256        4.98166
H         11.20896       -0.27322        6.69949
H         13.19456       -2.25342        5.39273
H         11.74400       -2.69191        6.31324
H         13.10133       -1.89998        7.13049
H         10.83691        3.22981        4.95520
H         10.40908        1.60381        5.44352
H          7.95155        1.87983        2.78690
H          8.73574        2.28741        4.30149
H          8.05350       -0.58100        3.37470
H          7.21828        0.35825        4.62657
H          8.88304       -0.17852        4.90045
H         10.70284        1.60860        0.88479
H          8.98816        1.16719        1.02235
H         11.37853       -0.69217        1.65050
H         10.36268       -0.76265        0.19873
H          9.66304       -1.16296        1.77922
