55

C          0.29014       -2.05422        3.33356
C          1.10999       -0.97580        2.59589
C          2.22290       -1.57744        1.78385
N          3.38109       -1.68946        2.43790
N          4.41870       -2.24448        1.81263
C          5.66717       -2.27431        2.61058
C          6.34654       -0.90143        2.59589
C          7.60896       -0.89533        3.46152
S          8.36877        0.74481        3.37673
O          8.92484        0.93141        2.05264
O          7.44352        1.68434        3.95513
O          9.58921        0.56144        4.42274
C          4.37357       -2.68872        0.54340
C          3.18728       -2.59534       -0.16644
C          2.05728       -2.03841        0.44021
C          0.77516       -1.89520       -0.31214
C          0.76392       -0.59692       -1.16203
C         -0.54740       -0.45159       -1.95053
N         -0.46505        0.68726       -2.83744
C         -1.74685        1.14535       -3.40514
C         -1.51486        2.15422       -4.49923
C         -1.41340        1.74539       -5.83574
C         -1.17059        2.65474       -6.86635
C         -1.03233        4.01128       -6.56000
C         -1.13445        4.44727       -5.23918
C         -1.36973        3.52609       -4.21119
O         -1.47514        3.91223       -2.90036
H         -0.51310       -1.57999        3.91062
H          0.92587       -2.61655        4.02980
H         -0.16980       -2.77007        2.63836
H          1.56068       -0.29111        3.32585
H          0.45707       -0.37770        1.94545
H          6.30851       -3.05713        2.18450
H          5.37264       -2.56822        3.62595
H          5.63941       -0.14837        2.97258
H          6.60503       -0.62941        1.56082
H          8.36659       -1.61184        3.11494
H          7.39145       -1.08028        4.52269
H         10.42150        0.56219        3.91087
H          5.29041       -3.11484        0.13900
H          3.15196       -2.96825       -1.19009
H         -0.08254       -1.89513        0.37315
H          0.65045       -2.75836       -0.98443
H          1.61521       -0.62040       -1.86227
H          0.90757        0.28935       -0.52643
H         -1.38168       -0.28097       -1.25022
H         -0.76955       -1.41182       -2.46984
H          0.20566        0.52685       -3.59043
H         -2.34123        1.58524       -2.59007
H         -2.33053        0.29966       -3.82288
H         -1.54388        0.68525       -6.06712
H         -1.10130        2.31241       -7.89839
H         -0.84963        4.73784       -7.35227
H         -1.03293        5.50915       -5.00012
H         -1.40658        4.87975       -2.85400
