48

F          1.42522       -1.12720       -0.26638
C          1.82861       -0.87392       -1.59696
C          3.19492       -0.21485       -1.60994
C          4.33547       -1.03447       -0.95754
C          4.60977       -2.35782       -1.63582
C          5.26379       -2.36696       -2.84298
C          5.52336       -3.55769       -3.55035
C          6.20061       -3.56584       -4.79501
C          6.44413       -4.75954       -5.44027
C          6.02026       -5.98286       -4.86566
C          5.36210       -6.00519       -3.65475
C          5.09356       -4.79052       -2.96117
C          4.44009       -4.76391       -1.69792
N          4.19819       -3.57370       -1.08216
C          3.51483       -3.54262        0.24421
C          4.50906       -3.61367        1.41169
C          3.79819       -3.75365        2.76078
C          3.10466       -5.10146        2.93573
O          3.07685       -5.96922        2.08778
O          2.48982       -5.30935        4.12352
C          4.07752       -6.06623       -1.03946
C          5.31840       -6.74794       -0.44306
O          6.26982       -6.14660        0.01128
O          5.16989       -8.07895       -0.46797
C          6.22818       -8.84171        0.17718
H          1.06936       -0.21949       -2.04730
H          1.81950       -1.84194       -2.12474
H          3.13306        0.75420       -1.09348
H          3.44474        0.00475       -2.66054
H          4.14316       -1.14493        0.11380
H          5.25950       -0.44377       -1.03233
H          5.59288       -1.41384       -3.25864
H          6.52514       -2.61916       -5.22862
H          6.96576       -4.76680       -6.39757
H          6.21881       -6.91820       -5.38858
H          5.05509       -6.96251       -3.23827
H          2.81471       -4.37848        0.28090
H          2.90604       -2.63516        0.28112
H          5.12831       -2.70456        1.42744
H          5.19571       -4.45764        1.26315
H          3.05298       -2.95330        2.91117
H          4.53336       -3.63834        3.57330
H          2.59634       -4.54174        4.71375
H          3.59567       -6.73535       -1.76164
H          3.38510       -5.96765       -0.19482
H          5.91118       -9.88503        0.10233
H          6.32482       -8.53585        1.22554
H          7.17922       -8.68177       -0.34517
