46

N          3.99610       -0.92977        0.03648
C          3.87302        0.49734       -0.15648
C          2.44307        1.12050       -0.11747
C          1.92751        1.01330        1.31097
N          0.46366        1.39028        1.62495
C         -0.40822        0.66394        0.61158
C         -1.85698        0.44775        1.02689
O         -1.95380       -0.13683        2.31244
C         -1.38078        0.72174        3.29351
C          0.13575        0.90625        3.11771
C          0.94268       -0.29595        3.55358
C          2.02664       -0.08490        4.42234
C          2.80605       -1.15367        4.86811
C          2.51105       -2.45326        4.44794
C          1.42222       -2.67816        3.60012
C          0.63674       -1.61196        3.15800
C          0.43440        2.92743        1.51011
C         -0.67531        3.89825        1.87650
C         -2.14189        3.86593        1.95177
O         -1.32651        3.88141        3.14732
O          2.46718        2.48989       -0.52366
H          3.81682       -1.25105        0.98472
H          3.46507       -1.48962       -0.62721
H          4.28820        0.75212       -1.14706
H          4.50567        1.01744        0.58044
H          1.80825        0.52552       -0.80176
H          2.55210        1.61702        1.98255
H          2.02052       -0.03596        1.60669
H          0.06433       -0.31567        0.46737
H         -0.35160        1.22334       -0.33063
H         -2.30194       -0.26288        0.31685
H         -2.44313        1.37795        0.96843
H         -1.54027        0.23944        4.26609
H         -1.88638        1.69769        3.31533
H          0.44222        1.76820        3.72520
H          2.25958        0.92839        4.75771
H          3.63944       -0.97215        5.54716
H          3.11739       -3.29194        4.79111
H          1.17376       -3.69345        3.28948
H         -0.22600       -1.80743        2.52229
H          0.71481        3.13508        0.46970
H          1.29214        3.23775        2.12304
H         -0.25954        4.88591        1.62175
H         -2.71414        2.95159        1.79420
H         -2.68961        4.79202        1.75627
H          2.96303        2.55771       -1.35682
