95

C          0.72886       -2.51067        2.01731
C          2.24234       -2.28753        1.96294
C          2.98494       -3.36880        1.17058
C          4.49893       -3.14967        1.09479
C          5.23544       -4.23183        0.29923
C          6.74238       -3.98624        0.17849
C          7.48003       -5.07037       -0.61296
C          8.96993       -4.77572       -0.81108
C          9.70732       -5.86368       -1.59705
C         11.17644       -5.52751       -1.87609
C         11.89590       -6.63271       -2.65846
C         13.32091       -6.26337       -3.02820
O         13.89972       -7.37122       -3.75127
C         15.18604       -7.12406       -4.29583
C         15.56631       -8.39359       -5.06313
N         15.33531       -9.52965       -4.06901
C         15.43120      -10.93505       -4.61017
C         14.55622      -11.05976       -5.85441
N         15.00134      -10.02298       -6.78100
C         14.72281       -8.65912       -6.32447
C         15.07323       -7.65232       -7.42491
C         14.04138       -7.59171       -8.55665
C         14.42832       -6.61845       -9.67670
S         15.87230       -7.14575      -10.63910
C         17.21185       -6.11758       -9.99847
S         16.99529       -4.94638       -8.82739
N         18.39953       -6.39079      -10.58654
C         18.57730       -7.41205      -11.63166
C         18.96229       -8.78580      -11.07574
C         19.61687       -5.65297      -10.20384
C         19.85306       -4.41184      -11.06523
C         14.67267      -12.45010       -6.49364
C         13.94835      -13.55974       -5.70929
C         14.04205      -14.94180       -6.39988
N         15.33731      -15.55186       -6.06280
O         14.46379      -13.68655       -4.38441
H          0.22418       -1.72038        2.58996
H          0.48382       -3.47254        2.49213
H          0.29059       -2.52068        1.00811
H          2.64742       -2.24619        2.98834
H          2.45430       -1.30122        1.51606
H          2.57265       -3.41606        0.14688
H          2.77996       -4.35586        1.62206
H          4.91433       -3.10088        2.11682
H          4.70140       -2.16342        0.64075
H          4.79763       -4.30083       -0.71242
H          5.05980       -5.21521        0.77020
H          7.18402       -3.90549        1.18730
H          6.91161       -3.00681       -0.30295
H          7.00090       -5.18874       -1.60110
H          7.36102       -6.04241       -0.10257
H          9.45350       -4.64285        0.17258
H          9.08092       -3.80980       -1.33451
H          9.18866       -6.03429       -2.55685
H          9.64699       -6.81909       -1.04693
H         11.70166       -5.34427       -0.92315
H         11.22958       -4.58089       -2.44104
H         11.34092       -6.85527       -3.58448
H         11.90724       -7.56226       -2.06513
H         13.93335       -6.05222       -2.13180
H         13.34340       -5.36693       -3.67401
H         15.92653       -6.91449       -3.49677
H         15.18536       -6.25521       -4.97527
H         16.63455       -8.40333       -5.32261
H         14.39367       -9.33496       -3.67645
H         15.99011       -9.42125       -3.28397
H         15.12539      -11.63039       -3.82043
H         16.48368      -11.10658       -4.87228
H         13.49449      -10.91051       -5.54415
H         14.60138      -10.17128       -7.70750
H         13.65546       -8.53257       -6.03686
H         16.06330       -7.91520       -7.82969
H         15.17596       -6.64292       -7.00468
H         13.06859       -7.26649       -8.14943
H         13.87217       -8.59078       -8.99372
H         14.67467       -5.61800       -9.28220
H         13.61454       -6.52522      -10.40800
H         19.35754       -7.03996      -12.31100
H         17.65707       -7.47422      -12.22902
H         19.89720       -8.73747      -10.50119
H         19.11114       -9.49444      -11.90158
H         18.17327       -9.18014      -10.42242
H         20.45735       -6.35716      -10.29452
H         19.51323       -5.37303       -9.14827
H         19.94430       -4.66611      -12.13026
H         20.78469       -3.91875      -10.75726
H         19.02986       -3.69660      -10.94546
H         15.73757      -12.70139       -6.63157
H         14.22561      -12.39025       -7.50079
H         12.88302      -13.28420       -5.62186
H         13.85805      -14.84924       -7.48361
H         13.25084      -15.57962       -5.98442
H         16.05663      -15.34875       -6.75538
H         15.26832      -16.56411       -5.98752
H         15.11942      -14.42266       -4.47648
