37

C          2.04771        0.49052       -0.45817
C          1.99707       -0.44533        0.73220
O          2.83827        0.05815        1.83777
C          4.12171       -0.30368        1.83034
O          4.68504       -1.00561        1.01688
C          4.83576        0.29694        3.06451
C          6.30637        0.12959        2.97294
N          7.17729        1.05263        2.52577
C          8.46170        0.54800        2.52274
C          8.40182       -0.74225        2.98442
N          7.04423       -0.97001        3.25316
I          6.26452       -2.71793        3.99977
C          9.47546       -1.75536        3.17067
C          9.61184       -2.78687        2.01370
C          9.98190       -2.13674        0.66386
C         11.35089       -1.45124        0.60015
C         10.59635       -3.88348        2.43929
H          1.34336        0.13322       -1.22199
H          3.04785        0.51411       -0.90839
H          1.75041        1.50874       -0.17636
H          2.34057       -1.45587        0.47901
H          0.99749       -0.49199        1.17926
H          4.44597       -0.20215        3.96507
H          4.57580        1.36000        3.16248
H          6.91004        1.98600        2.22527
H          9.31459        1.13503        2.20407
H          9.29463       -2.29462        4.11508
H         10.42687       -1.21994        3.30379
H          8.62380       -3.26053        1.87644
H          9.19520       -1.41832        0.37979
H          9.94242       -2.92834       -0.10057
H         11.44804       -0.62400        1.32031
H         11.51888       -1.02700       -0.39829
H         12.17203       -2.15339        0.79589
H         11.59084       -3.47327        2.66541
H         10.71489       -4.62785        1.64051
H         10.24336       -4.40941        3.33766
