48

C          1.53062        2.90858       -7.37720
C          3.03165        3.04648       -7.11294
C          3.39614        2.93022       -5.62753
C          4.89990        3.08284       -5.36447
C          5.25069        2.93877       -3.89385
O          6.67226        3.14346       -3.73817
C          7.10816        3.11801       -2.39523
C          8.58666        3.51464       -2.39895
S          8.94278        4.64295       -3.79641
C          8.18781        6.30252       -3.21084
C          8.08670        7.26889       -4.42721
F          7.74855        8.49181       -3.96929
F          9.31239        7.33558       -5.03269
F          6.94931        6.05787       -2.73921
F          8.94033        6.81567       -2.22099
C         10.78398        4.93595       -3.57335
C         11.50055        3.65095       -3.84274
C         11.66217        3.17864       -5.15658
C         12.32601        1.97866       -5.39272
C         12.85153        1.21553       -4.33422
C         12.68911        1.69925       -3.02518
C         12.01915        2.89608       -2.77825
C         13.59311       -0.06452       -4.60198
H          1.30553        2.98902       -8.44884
H          0.95799        3.69127       -6.85824
H          1.15086        1.93606       -7.03115
H          3.38645        4.01752       -7.49834
H          3.58004        2.27642       -7.68084
H          3.05187        1.95382       -5.24535
H          2.84131        3.69370       -5.05508
H          5.24015        4.07170       -5.71601
H          5.46242        2.33152       -5.94156
H          4.98786        1.93354       -3.51743
H          4.71263        3.68409       -3.27866
H          7.02144        2.10756       -1.95220
H          6.52062        3.81169       -1.76977
H          9.24703        2.66772       -2.63877
H          8.91954        3.97598       -1.46026
H          7.33704        6.91386       -5.15346
H         10.93685        5.32179       -2.55884
H         10.99606        5.72106       -4.30963
H         11.27370        3.75524       -5.99902
H         12.44643        1.62682       -6.41861
H         13.09834        1.13176       -2.18775
H         11.91803        3.25746       -1.75231
H         13.17445       -0.60035       -5.46339
H         13.57559       -0.73256       -3.73213
H         14.64917        0.14589       -4.83293
