60

C          7.90327       -8.54426       -4.71340
C          7.60657       -7.28155       -3.90207
C          8.23000       -7.30412       -2.50264
C          7.92424       -6.05085       -1.67806
C          8.53461       -6.07197       -0.27252
C          8.19219       -4.82291        0.54489
C          8.78675       -4.81557        1.95806
C          8.39228       -3.56119        2.74848
C          8.85678       -3.51706        4.21199
C         10.37441       -3.49617        4.43552
N         11.00268       -2.31256        3.78655
C         11.69489       -1.56395        4.57351
C         11.76791       -2.06614        5.97238
C         10.82809       -3.32200        5.90926
C         11.29843       -0.94848        6.94976
C          9.94565       -0.31286        6.61391
C          9.53158        0.74537        7.65729
C          8.24839        1.35821        7.34441
C          7.18039        1.84980        7.06088
C         13.28596       -2.41437        6.21124
C         13.71123       -2.63096        7.67754
C         13.06519       -3.82412        8.35722
Br        13.48050       -3.91855       10.26268
Br        15.67186       -2.84637        7.64411
H          7.44123       -8.49988       -5.70883
H          7.51812       -9.44196       -4.20767
H          8.98543       -8.68241       -4.85484
H          6.51536       -7.15028       -3.80913
H          7.97284       -6.39591       -4.44820
H          9.32371       -7.42711       -2.59317
H          7.86892       -8.19505       -1.95940
H          6.83011       -5.92905       -1.59511
H          8.28761       -5.15955       -2.21932
H          9.63146       -6.17405       -0.35060
H          8.18246       -6.96882        0.26594
H          7.09532       -4.72798        0.61982
H          8.53570       -3.92549        0.00032
H          9.88578       -4.90756        1.88397
H          8.44450       -5.71020        2.50626
H          7.29451       -3.47824        2.75486
H          8.73166       -2.65710        2.20827
H          8.48358       -4.40668        4.74432
H          8.41997       -2.64228        4.72014
H         10.83121       -4.38046        3.96479
H         10.86758       -2.11490        2.79222
H         12.18795       -0.66306        4.19806
H          9.95008       -3.18285        6.55252
H         11.35025       -4.22128        6.25043
H         12.07480       -0.16615        6.98017
H         11.26170       -1.38534        7.95976
H          9.15388       -1.07611        6.56260
H          9.97642        0.17110        5.62288
H         10.30750        1.52704        7.72255
H          9.48357        0.27749        8.65570
H          6.23588        2.29761        6.83104
H         13.90211       -1.58779        5.82722
H         13.54876       -3.30481        5.61991
H         13.55790       -1.72226        8.27013
H         13.38792       -4.77389        7.91495
H         11.97171       -3.75011        8.32113
