57

C          0.90068       -0.31999        0.29704
C          2.42868       -0.30110        0.21320
C          2.96478       -0.74823       -1.15189
C          4.49323       -0.69929       -1.24567
C          5.03081       -1.10858       -2.62163
C          6.55988       -1.02222       -2.70213
C          7.06357       -1.36591       -4.10653
N          8.52892       -1.26005       -4.22455
N          9.28512       -2.32813       -4.13635
N         10.54563       -1.94667       -4.14338
C         10.56672       -0.60450       -4.23359
N          9.28953       -0.12896       -4.28834
Si         8.74365        1.70710       -4.39175
C          9.01321        2.32053       -2.65314
C          9.84584        2.47300       -5.68799
C          6.96718        1.80030       -4.95216
C         11.81771        0.20391       -4.28144
C         13.05134       -0.57320       -3.80516
C         14.35359        0.19467       -3.93958
C         15.55859       -0.50771       -3.77094
C         16.78778        0.14133       -3.87404
C         16.83797        1.51150       -4.15069
C         15.64985        2.22146       -4.32023
C         14.41754        1.56778       -4.21404
H          0.55144        0.00537        1.28587
H          0.50195       -1.32963        0.12034
H          0.45014        0.34948       -0.45038
H          2.85099       -0.94994        0.99863
H          2.79751        0.71587        0.43043
H          2.52928       -0.11035       -1.94113
H          2.61655       -1.77359       -1.36523
H          4.93136       -1.35321       -0.47245
H          4.83928        0.32301       -1.01076
H          4.58214       -0.46222       -3.39664
H          4.70677       -2.13585       -2.85811
H          7.02272       -1.71246       -1.97985
H          6.88481       -0.00763       -2.42128
H          6.61218       -0.73795       -4.88259
H          6.86321       -2.41521       -4.35629
H         10.05838        2.22558       -2.33130
H          8.37941        1.79107       -1.92965
H          8.74946        3.38774       -2.61059
H         10.86019        2.69159       -5.33729
H          9.38363        3.42951       -5.97565
H          9.90815        1.85775       -6.59572
H          6.23302        1.44526       -4.22092
H          6.79501        1.31059       -5.91987
H          6.77413        2.87430       -5.10485
H         11.68125        1.11647       -3.68239
H         11.97136        0.53778       -5.32176
H         13.12507       -1.51181       -4.37309
H         12.90471       -0.87477       -2.75449
H         15.53051       -1.57894       -3.55938
H         17.71063       -0.42467       -3.74363
H         17.79809        2.02066       -4.23515
H         15.67643        3.28980       -4.53758
H         13.50855        2.15669       -4.35165
