52

C          2.41474       -1.04134        4.26565
C          3.61728       -0.69011        3.38608
C          4.23938       -1.92311        2.71692
C          5.46371       -1.57166        1.89365
O          6.00929       -2.79913        1.34313
C          7.24684       -2.62425        0.74458
N          7.77041       -3.99985        0.42329
C          6.77636       -4.85118       -0.34105
C          6.37894       -6.06929        0.49849
C          5.72397       -5.95345        1.80941
O          7.14546       -6.24841        1.70260
C          9.12882       -3.94651       -0.23581
C         10.21542       -3.52602        0.75571
O         10.08166       -4.45460        1.83555
C         10.47539       -3.95536        3.13805
C          9.38386       -3.13448        3.78048
C          8.21177       -3.76690        4.23035
C          7.19403       -3.02651        4.83156
C          7.33123       -1.64207        4.98616
C          8.48865       -1.00210        4.53623
C          9.51083       -1.74681        3.93751
C         11.59467       -3.58600        0.10254
H          1.98700       -0.14363        4.72972
H          2.69771       -1.73095        5.07454
H          1.61839       -1.52448        3.68102
H          4.38384       -0.18062        3.99406
H          3.31188        0.03320        2.61198
H          3.49514       -2.41876        2.07254
H          4.53395       -2.65397        3.48699
H          6.23592       -1.09404        2.52007
H          5.21202       -0.88797        1.06282
H          7.97154       -2.14658        1.42479
H          7.19603       -2.06401       -0.21002
H          7.93007       -4.51731        1.32753
H          7.25848       -5.17034       -1.27159
H          5.90223       -4.23744       -0.58446
H          6.22783       -6.98201       -0.08478
H          5.12085       -6.78721        2.17509
H          5.49216       -4.96285        2.20612
H          9.06895       -3.27986       -1.10625
H          9.33949       -4.96806       -0.57870
H         10.02661       -2.49753        1.11420
H         11.41225       -3.38070        3.06132
H         10.68371       -4.86064        3.72339
H          8.11353       -4.85025        4.13117
H          6.30236       -3.53114        5.20570
H          6.54268       -1.06710        5.47339
H          8.60420        0.07463        4.66513
H         10.42711       -1.24765        3.61425
H         11.80234       -4.59521       -0.27697
H         12.37217       -3.33054        0.83284
H         11.67319       -2.86945       -0.72711
