83

O          3.02821        1.38161       -2.38270
C          4.25499        1.83250       -1.82134
C          3.99968        3.24571       -1.31429
O          5.16130        3.65384       -0.57540
C          5.11298        5.00206       -0.16553
O          6.25023        5.26608        0.63299
C          6.23909        4.66224        1.90680
N          7.62400        4.21769        2.20923
C          8.47708        5.21213        2.63823
C          9.79607        4.96399        2.86874
C         10.32522        3.65734        2.69579
C          9.40570        2.62197        2.29335
C          8.04483        2.94265        2.00991
C          7.06370        1.92202        1.52330
C          6.24401        1.26642        2.66268
C          5.25502        0.23197        2.11882
C          4.33109       -0.35324        3.19235
C          3.42620       -1.45939        2.63785
C          2.41506       -1.95451        3.66058
O          1.70796       -3.06319        3.06322
C          0.51450       -3.39495        3.65037
O          0.05135       -2.80370        4.60648
C         -0.09167       -4.55092        2.94537
C         -1.27754       -5.04198        3.32145
C          9.87860        1.28653        2.17945
C         11.20279        1.00820        2.43118
C         12.10755        2.03598        2.77342
C         11.70833        3.35877        2.91005
C         12.69314        4.45297        3.26627
C         14.16917        4.13620        2.99735
C         15.07993        5.34334        3.24169
N         16.43592        5.04745        2.80676
C         17.39383        6.13940        3.05086
C         18.67798        5.90053        2.29666
C         18.88518        6.48709        1.04182
C         20.04711        6.25837        0.30179
C         21.03707        5.42558        0.82808
C         20.86092        4.83309        2.07861
C         19.68911        5.06462        2.81014
O         19.48369        4.50319        4.04382
H          3.19528        0.58433       -2.90691
H          5.07140        1.84643       -2.56409
H          4.57416        1.19445       -0.97467
H          3.10259        3.25682       -0.66823
H          3.82059        3.92761       -2.16340
H          4.17346        5.20693        0.38924
H          5.19962        5.69215       -1.02109
H          5.56110        3.80486        1.95852
H          5.97349        5.39388        2.68615
H          8.02472        6.19328        2.76046
H         10.42550        5.78689        3.19917
H          7.61072        1.14360        0.97842
H          6.38974        2.37578        0.78305
H          5.69797        2.04119        3.22743
H          6.92936        0.79740        3.38671
H          5.81526       -0.58274        1.62862
H          4.64115        0.69587        1.32772
H          3.71413        0.45590        3.62022
H          4.93444       -0.75096        4.02624
H          4.04153       -2.30848        2.29969
H          2.88302       -1.09281        1.75158
H          1.69378       -1.17470        3.94652
H          2.90609       -2.30625        4.58309
H          0.47650       -4.97445        2.11602
H         -1.82172       -4.59618        4.15592
H         -1.72842       -5.89247        2.81092
H          9.20373        0.48036        1.90163
H         11.56582       -0.01657        2.35200
H         13.15353        1.77458        2.93097
H         12.55908        4.71866        4.33101
H         12.43404        5.36307        2.70162
H         14.28219        3.81306        1.94779
H         14.52637        3.30529        3.62345
H         15.10778        5.57642        4.32021
H         14.64795        6.24413        2.74414
H         16.44035        4.83102        1.80760
H         17.58595        6.18822        4.13401
H         16.98617        7.12606        2.74403
H         18.11179        7.15025        0.64605
H         20.18412        6.73308       -0.66944
H         21.95395        5.23793        0.26837
H         21.63723        4.18569        2.49512
H         20.27339        3.99419        4.28800
