51

C          3.58538        4.25417        2.39291
C          3.65019        2.98026        1.54465
C          4.44516        3.19736        0.27088
O          4.50927        1.94329       -0.45843
C          4.92924        2.03116       -1.75333
N          6.47477        2.20921       -1.85339
C          7.23310        1.22184       -1.05498
C          7.06021       -0.14561       -1.26261
C          7.81448       -1.03811       -0.49849
C          8.72315       -0.56174        0.45129
C          8.88671        0.81233        0.63975
C          8.13744        1.71541       -0.11777
C          6.94258        2.30516       -3.30091
C          6.72849        3.70147       -3.89119
P          7.67421        4.99852       -3.01110
O          9.12014        4.71343       -2.89388
O          7.25062        6.38915       -3.65987
C          8.18320        7.15473       -4.51056
C          8.25730        6.58829       -5.91368
O          6.83932        4.98607       -1.61175
C          7.19663        5.95767       -0.55558
C          6.02744        6.87817       -0.28523
H          3.00917        4.07859        3.30922
H          3.09847        5.07885        1.85238
H          4.58727        4.59309        2.69480
H          2.63757        2.64235        1.27883
H          4.11836        2.16421        2.11551
H          5.47082        3.53006        0.51382
H          3.97851        3.96097       -0.37731
H          4.50933        2.89360       -2.29874
H          4.69505        1.09108       -2.26835
H          6.66586        3.15065       -1.44335
H          6.35179       -0.52560       -1.99935
H          7.68761       -2.11023       -0.64687
H          9.30659       -1.26532        1.04490
H          9.59928        1.18680        1.37420
H          8.27399        2.79146        0.00687
H          6.40729        1.53318       -3.87025
H          8.00993        2.05392       -3.29118
H          5.66998        3.98926       -3.95576
H          7.11785        3.69340       -4.91980
H          9.16504        7.16273       -4.01976
H          7.76484        8.16791       -4.49825
H          8.74090        5.60137       -5.92489
H          8.86392        7.25566       -6.54150
H          7.26015        6.51299       -6.36769
H          8.09455        6.50613       -0.87277
H          7.46467        5.35784        0.32536
H          5.76435        7.45370       -1.18129
H          6.29784        7.58582        0.51087
H          5.14426        6.31820        0.04844
