97

C          0.75324        0.73017       -0.10324
C          2.19663        0.32237       -0.41025
C          2.84107       -0.51390        0.70087
C          4.28255       -0.93741        0.39997
C          4.91863       -1.77639        1.51282
C          6.34251       -2.24654        1.19831
C          6.97303       -3.07587        2.32124
C          8.37811       -3.59324        1.99688
C          8.99467       -4.42618        3.12500
C         10.38199       -4.98643        2.79459
C         10.97325       -5.83826        3.92290
C         12.33319       -6.45682        3.58034
C         12.87743       -7.34490        4.70298
C         14.21756       -8.02897        4.33948
C         14.68541       -8.92980        5.44547
C         15.44496       -8.39175        6.53051
C         15.83110       -9.16756        7.59661
C         15.46101      -10.54109        7.63256
C         14.70526      -11.10078        6.55018
C         14.33581      -10.27331        5.46834
C         14.36877      -12.47021        6.64834
C         14.71695      -13.25241        7.73046
N         15.43177      -12.67873        8.78276
C         15.78738      -11.37838        8.70148
Si        16.06667      -13.49540       10.38650
C         17.87875      -13.79631       10.04888
C         15.77194      -12.20538       11.71410
C         15.13981      -15.04408       10.86741
C         14.35521      -14.70995        7.73813
C         15.51258      -15.65114        7.34095
C         15.05501      -17.11086        7.26425
C         16.18678      -18.09874        6.96108
C         15.67016      -19.53179        6.79034
C         16.79967      -20.54521        6.62513
O         16.28968      -21.86611        6.32842
C         15.86072      -22.59445        7.40507
O         15.90571      -22.19062        8.55311
C         15.34539      -23.91041        6.95477
C         14.81043      -24.77317        7.82548
H          0.31773        1.32168       -0.92024
H          0.69614        1.33734        0.81264
H          0.11202       -0.15132        0.04666
H          2.80623        1.22522       -0.58471
H          2.22580       -0.24732       -1.35458
H          2.22724       -1.41488        0.87952
H          2.81703        0.05702        1.64634
H          4.89907       -0.03870        0.22152
H          4.30386       -1.50889       -0.54494
H          4.28285       -2.65735        1.71208
H          4.92506       -1.19322        2.45072
H          6.98080       -1.37066        0.98689
H          6.33111       -2.84155        0.26796
H          6.31625       -3.93358        2.55178
H          7.01068       -2.47047        3.24416
H          9.04030       -2.74045        1.76575
H          8.33775       -4.20129        1.07584
H          8.31664       -5.26299        3.36963
H          9.05646       -3.81234        4.04080
H         11.07005       -4.15562        2.56042
H         10.31870       -5.59446        1.87506
H         10.26323       -6.64530        4.17580
H         11.06883       -5.22381        4.83507
H         13.06009       -5.65763        3.35458
H         12.24076       -7.05398        2.65644
H         12.13839       -8.12607        4.94871
H         13.01007       -6.75036        5.62254
H         14.97754       -7.25859        4.13561
H         14.08824       -8.61019        3.41401
H         15.72058       -7.33627        6.50094
H         16.41240       -8.74153        8.41594
H         13.76037      -10.69966        4.64417
H         13.80162      -12.93872        5.84327
H         16.35162      -10.97761        9.54353
H         18.40764      -12.86443        9.80701
H         18.03516      -14.50363        9.22397
H         18.34638      -14.22186       10.94901
H         16.43752      -11.33459       11.66419
H         15.95307      -12.68878       12.68570
H         14.73136      -11.85287       11.71416
H         15.32842      -15.91043       10.22472
H         14.05778      -14.88349       10.95861
H         15.51141      -15.29817       11.87327
H         13.53633      -14.84054        7.01675
H         13.94401      -15.00693        8.71097
H         16.34458      -15.55949        8.05846
H         15.91754      -15.33003        6.36740
H         14.27095      -17.20114        6.49263
H         14.57236      -17.39752        8.21512
H         16.92728      -18.06519        7.77933
H         16.72197      -17.78235        6.04904
H         15.00740      -19.58947        5.91199
H         15.07069      -19.81664        7.66822
H         17.41632      -20.59555        7.53453
H         17.43696      -20.29942        5.76493
H         15.41858      -24.12918        5.88873
H         14.74937      -24.52195        8.88557
H         14.42542      -25.74058        7.50498
