63

C          5.53569       -2.40103        0.03931
C          4.38820       -1.38916        0.07142
C          4.41062       -0.49876        1.31842
C          3.26613        0.52299        1.32755
N          3.28921        1.42107        2.49308
C          2.65246        1.17776        3.65504
O          2.72869        1.95095        4.63561
C          1.78520       -0.09609        3.73791
C          1.39218       -0.50064        5.12186
N          1.56754        0.28213        6.13499
C          1.27299       -0.33580        7.43846
C          0.48664       -1.60106        7.03149
C          0.78785       -1.81489        5.52221
C         -0.43991       -2.22394        4.66004
C         -1.06733       -3.51358        5.14015
C         -0.44681       -4.74701        4.88922
C         -1.01474       -5.93507        5.35086
C         -2.21280       -5.90535        6.07181
C         -2.84102       -4.68397        6.32270
C         -2.27028       -3.49555        5.85914
C          2.60515       -0.59326        8.16138
O          2.29426       -1.12184        9.42392
C          3.47409       -1.32490       10.23849
O          3.11235       -1.85760       11.44982
C          2.45948       -0.94193       12.34997
C          2.45309       -1.58598       13.73524
O          1.70248       -0.80149       14.65836
C          4.12108        2.62339        2.37508
H          5.49513       -3.01334       -0.87081
H          5.49646       -3.08424        0.90039
H          6.51350       -1.89867        0.05768
H          3.42292       -1.92100        0.01765
H          4.43138       -0.75223       -0.82757
H          5.37327        0.03413        1.37758
H          4.35688       -1.12469        2.22675
H          2.29069        0.02073        1.26618
H          3.32738        1.16350        0.43550
H          2.26879       -0.96170        3.26134
H          0.85758        0.06553        3.15889
H          2.04256        1.20451        5.90016
H          0.67633        0.35928        8.04520
H         -0.58920       -1.43967        7.17749
H          0.76887       -2.46182        7.64645
H          1.56608       -2.58695        5.37643
H         -0.12545       -2.33089        3.60990
H         -1.18477       -1.41352        4.69653
H          0.48231       -4.78433        4.31413
H         -0.52705       -6.88742        5.14048
H         -2.65965       -6.83397        6.42769
H         -3.78214       -4.65472        6.87242
H         -2.77571       -2.54524        6.04612
H          3.17283        0.35653        8.24330
H          3.22381       -1.29739        7.56315
H          3.98929       -0.34456       10.34553
H          4.13800       -2.05577        9.74386
H          1.42573       -0.74805       12.02304
H          3.00916        0.01908       12.36214
H          3.48637       -1.75834       14.08079
H          1.95507       -2.56431       13.67663
H          2.25823       -0.07344       14.97512
H          5.14925        2.34259        2.10987
H          4.12437        3.15347        3.33015
H          3.71677        3.27850        1.59083
