82

C          8.71384        7.27668        6.58957
O          8.52674        5.89247        6.85141
C          9.17880        5.06803        5.90379
C          8.90471        3.62369        6.29938
O          9.45840        2.78978        5.28162
C          9.24197        1.41076        5.49685
C          9.70111        0.71426        4.21462
O          9.73071       -0.71471        4.31225
C          8.44823       -1.34995        4.20233
C          8.62961       -2.86354        4.12032
C          9.39682       -3.43355        5.33417
N         10.82689       -3.07557        5.21042
C         11.73338       -3.86363        4.62354
N         12.99543       -3.45890        4.36758
C         13.57478       -2.08301        4.25939
C         15.10593       -2.34554        4.02906
C         15.87801       -1.10228        3.56904
C         15.79004       -2.98169        5.25087
C         12.93458       -1.37139        3.04912
O         13.18189       -2.15067        1.87896
C         13.32814       -1.24509        5.52672
N         11.40818       -5.14060        4.33275
C         10.07499       -5.71571        4.53125
C          9.33780       -4.95139        5.63476
C          7.94232       -5.58421        6.00855
C          8.27139       -6.84346        6.88454
C          7.21765       -7.59683        7.74695
C          6.86467       -6.89816        9.07254
C          5.94960       -8.06502        7.01771
C          7.10160       -4.54275        6.78590
O          7.76537       -3.96639        7.91001
C          7.12761       -5.99259        4.75983
H          8.15871        7.82485        7.35956
H          8.32369        7.55610        5.59380
H          9.78152        7.55839        6.64328
H         10.27000        5.26020        5.88935
H          8.79346        5.25088        4.88089
H          7.81401        3.46082        6.38344
H          9.36105        3.39953        7.28147
H          8.17240        1.21023        5.70474
H          9.82667        1.03519        6.36219
H         10.73280        1.02487        3.99496
H          9.06640        1.02387        3.36621
H          7.92979       -0.97826        3.30065
H          7.82160       -1.10190        5.07891
H          9.14181       -3.13490        3.18389
H          7.62173       -3.29510        4.06916
H          9.05289       -2.91887        6.24280
H         11.00314       -2.07295        5.22128
H         13.53858       -4.13242        3.83411
H         15.15216       -3.06452        3.19120
H         15.83348       -0.28525        4.30411
H         15.52380       -0.72271        2.60297
H         16.93793       -1.36022        3.44568
H         15.91198       -2.25916        6.07010
H         16.79437       -3.32765        4.97400
H         15.23918       -3.84569        5.64729
H         13.36919       -0.36068        2.96624
H         11.85057       -1.25713        3.22372
H         12.86728       -1.66058        1.10491
H         13.41409       -1.85214        6.43489
H         12.34562       -0.75172        5.52651
H         14.07057       -0.43982        5.58582
H         12.10622       -5.70741        3.86581
H         10.20905       -6.76855        4.81111
H          9.51871       -5.69240        3.58054
H          9.95119       -5.04556        6.54514
H          9.08347       -6.56595        7.57688
H          8.70954       -7.59374        6.20580
H          7.75899       -8.51437        8.03733
H          7.76821       -6.56260        9.60568
H          6.34204       -7.59328        9.74391
H          6.18717       -6.04052        8.93915
H          5.26943       -7.23335        6.78359
H          5.38819       -8.76445        7.65220
H          6.18305       -8.58666        6.07943
H          6.14273       -4.99895        7.07699
H          6.84425       -3.70027        6.12592
H          7.67326       -4.57128        8.66335
H          7.52799       -6.90216        4.29212
H          7.10101       -5.20969        3.99171
H          6.08654       -6.20875        5.02660
