61

C          1.30660       -0.04356        1.96421
C          0.30853        0.04030        0.83751
C         -0.47986       -1.07595        0.52864
C         -1.39538       -1.05706       -0.52463
C         -1.55345        0.09599       -1.29535
C         -0.79526        1.22455       -0.99188
C          0.13629        1.20786        0.05759
C          0.87851        2.48336        0.37370
N          2.25632        2.57136       -0.19527
C          3.37376        2.80494        0.44399
C          4.51273        2.98626       -0.50110
C          3.84477        3.12642       -1.87862
C          2.42375        2.54578       -1.67679
C          2.21725        1.19308       -2.42252
O          1.58473        1.18825       -3.44725
C          2.87422       -0.14725       -1.93474
C          3.67612       -0.98788       -3.00858
C          4.90944       -0.33727       -3.73192
C          6.15685       -0.12116       -2.81445
O          6.21283        0.82376       -2.06535
O          7.12079       -1.03425       -2.91966
F          5.24269       -1.17845       -4.75984
F          4.54028        0.85908       -4.26640
F          4.15066       -2.09119       -2.35498
F          2.80338       -1.38652       -3.95554
F          3.68862        0.07132       -0.85254
F          1.86562       -0.96198       -1.53289
C          3.51607        2.87038        1.92330
C          4.29263        4.12717        2.38030
C          4.15621        4.43017        3.88208
C          3.09901        5.52575        4.29331
C          1.56567        5.31571        3.98714
C          0.77615        4.17630        4.73066
F          0.94078        4.24130        6.05167
F         -0.52696        4.30071        4.43326
F          1.18439        2.95342        4.29665
F          0.94869        6.47795        4.28180
F          1.42428        5.08360        2.63569
F          3.22559        5.75822        5.61876
F          3.44427        6.66017        3.61307
F          3.90708        3.28986        4.60025
F          5.34940        4.93140        4.32117
H          1.21388       -0.99974        2.49144
H          1.16345        0.75073        2.71183
H          2.34245        0.02005        1.59662
H         -0.36519       -1.98182        1.12613
H         -1.99002       -1.94526       -0.74016
H         -2.26991        0.12194       -2.11576
H         -0.93404        2.13821       -1.57425
H          0.95717        2.64998        1.45134
H          0.34059        3.34130       -0.05602
H          5.18104        2.10994       -0.44899
H          5.12658        3.85505       -0.22783
H          4.40941        2.60961       -2.65913
H          3.75781        4.18029       -2.16998
H          1.64305        3.18364       -2.11280
H          6.91036       -1.68662       -3.61763
H          4.08194        1.97182        2.22505
H          2.54751        2.79733        2.41954
H          3.97936        5.01937        1.82200
H          5.36850        3.99577        2.20485
