46

C          2.56553        1.66490       -1.34242
C          2.41923        2.13982        0.10516
C          3.12923        1.28080        1.15904
N          4.58405        1.12691        0.95149
C          5.11140       -0.07137        0.26142
C          6.61564        0.22506        0.05492
N          6.67139        1.67087        0.38165
C          5.52674        2.07551        0.97966
N          5.42337        3.32109        1.48775
N          4.43731        3.66969        2.42588
C          3.97995        5.03957        2.17245
C          4.92469        3.46966        3.79931
C          7.12528       -0.09792       -1.34868
C          8.58024        0.32231       -1.64795
C          9.61654       -0.20380       -0.62621
C          9.71497       -1.72700       -0.48320
C          8.93847       -0.06219       -3.09111
H          1.96496        2.29162       -2.01373
H          2.22201        0.62789       -1.46875
H          3.60532        1.72769       -1.69592
H          1.35524        2.15342        0.38899
H          2.76388        3.18039        0.19411
H          2.72922        0.25708        1.15483
H          2.96660        1.70209        2.15718
H          4.59481       -0.20169       -0.70105
H          4.93587       -0.96470        0.87471
H          7.21020       -0.31788        0.80710
H          7.55820        2.09485        0.63514
H          6.27022        3.90117        1.44346
H          3.58497        5.11315        1.15295
H          4.78664        5.78874        2.30231
H          3.17662        5.27297        2.88076
H          5.20174        2.41765        3.93989
H          4.10909        3.70806        4.49272
H          5.79357        4.11185        4.04231
H          6.45722        0.38426       -2.08127
H          7.01233       -1.18510       -1.49620
H          8.61856        1.42628       -1.59568
H          9.41912        0.23688        0.36795
H         10.60012        0.19430       -0.92047
H          8.77611       -2.18104       -0.13232
H         10.49270       -1.99472        0.24354
H          9.97850       -2.21104       -1.43291
H          8.88026       -1.14829       -3.25128
H          9.95896        0.25786       -3.34137
H          8.25543        0.41237       -3.80933
