89

C          0.26744       -1.53030        0.57094
C          1.75174       -1.61254        0.93644
C          2.28965       -0.33365        1.58843
C          3.78203       -0.39977        1.92661
C          4.32911        0.87570        2.57629
C          5.83253        0.81055        2.86112
C          6.40763        2.08231        3.49329
C          7.91922        1.99923        3.72383
C          8.53793        3.25738        4.34242
C         10.05354        3.13177        4.52168
C         10.72904        4.35494        5.15029
C         12.24092        4.15210        5.30355
C         12.96107        5.31347        6.00308
C         14.48653        5.13561        6.02038
N         14.84951        3.81594        6.59938
C         15.21279        3.94131        7.88155
N         15.31348        2.93727        8.75749
N         15.50754        5.21535        8.16160
C         15.33725        6.07261        6.96843
C         16.72557        6.46068        6.40400
C         17.61807        5.29941        5.95079
O         18.92509        5.83949        5.92803
C         19.89620        4.99436        5.35566
C         21.26783        5.66560        5.47115
C         21.60108        6.86411        4.50755
C         20.74937        8.18900        4.50350
C         20.73177        9.02948        5.81629
F         20.15633       10.23530        5.53179
F         19.96787        8.42238        6.76822
F         21.32655        8.98010        3.55258
F         19.48121        7.91055        4.10522
F         22.88764        7.23391        4.77014
F         21.53983        6.37128        3.23709
F         21.49483        6.07140        6.75559
F         22.19622        4.70167        5.17118
C         14.64459        7.36132        7.49331
O         14.50575        7.53113        8.68249
C         14.10824        8.45690        6.50906
C         14.55929        9.94952        6.78221
C         16.09097       10.30006        6.77116
C         16.73514       10.31599        5.34587
O         16.88249        9.29048        4.73207
O         17.08556       11.51733        4.88329
F         16.20958       11.53563        7.35246
F         16.75665        9.40597        7.55754
F         13.96778       10.71649        5.82334
F         14.06300       10.30185        7.98940
F         14.37107        8.12617        5.21609
F         12.74974        8.45623        6.66805
H         -0.08607       -2.46077        0.10550
H          0.07670       -0.71139       -0.13892
H         -0.35405       -1.34629        1.45998
H          2.34248       -1.83213        0.03053
H          1.91819       -2.46399        1.61807
H          1.71353       -0.12238        2.50675
H          2.10615        0.52258        0.91533
H          4.35319       -0.60967        1.00478
H          3.96771       -1.25829        2.59619
H          3.78365        1.07354        3.51570
H          4.12010        1.73820        1.91908
H          6.36899        0.60253        1.91834
H          6.04216       -0.05004        3.52091
H          5.89752        2.28210        4.45178
H          6.18330        2.94747        2.84508
H          8.41877        1.78889        2.76146
H          8.14020        1.13209        4.37150
H          8.06512        3.46187        5.31880
H          8.31316        4.13103        3.70648
H         10.51636        2.92848        3.53976
H         10.26835        2.24406        5.14396
H         10.28283        4.56078        6.13839
H         10.53811        5.24969        4.53454
H         12.68590        3.99300        4.30503
H         12.39501        3.21419        5.86700
H         12.58387        5.42417        7.03425
H         12.72669        6.24602        5.47314
H         14.88540        5.19800        4.99934
H         14.51660        2.94554        6.19919
H         15.02026        1.99801        8.52020
H         15.74935        3.07978        9.66060
H         15.44182        5.63964        9.08643
H         17.27347        6.98602        7.19950
H         16.61491        7.17685        5.57978
H         17.32756        4.93027        4.94830
H         17.58169        4.44173        6.65161
H         19.69015        4.77934        4.29123
H         19.98193        4.03470        5.89981
H         21.74705        9.19601        6.20783
H         16.91416       12.20908        5.55319
