67

C         16.45553        0.50948       -0.92301
C         15.30032        0.67936       -1.91237
C         14.05675       -0.13261       -1.53048
C         12.88415        0.07018       -2.49734
C         11.67038       -0.76584       -2.12832
O         10.59694       -0.44408       -3.02981
C          9.40798       -1.15475       -2.76181
C          8.30974       -0.57653       -3.67468
C          8.66854       -0.69471       -5.12793
C          9.38589        0.36028       -5.73792
N          9.75376        0.39942       -7.00993
N          9.42335       -0.65503       -7.75245
C          8.77445       -1.72511       -7.27918
C          8.37103       -1.80169       -5.93714
C          7.65719       -3.04697       -5.45136
C          6.29492       -3.24040       -6.14528
O          6.49903       -3.50085       -7.53712
C          8.56534       -4.28871       -5.55771
C          9.84091       -0.53948       -9.18118
C          8.90371       -1.24971      -10.14297
O          7.60497       -0.75759       -9.91341
C          6.60539       -1.36369      -10.74272
C          5.29356       -0.64041      -10.52835
O          5.37829        0.63225      -11.13476
C          4.22219        1.43854      -10.92184
C          4.43657        2.74567      -11.67263
O          3.34178        3.59152      -11.37345
C          3.41740        4.83760      -12.05248
H         17.33384        1.09301       -1.23002
H         16.76699       -0.54260       -0.84580
H         16.17105        0.84513        0.08515
H         15.63040        0.38288       -2.92234
H         15.02879        1.74615       -1.98367
H         13.74223        0.14459       -0.50946
H         14.32270       -1.20322       -1.48587
H         13.19440       -0.18208       -3.52470
H         12.58853        1.13191       -2.50804
H         11.34680       -0.55520       -1.09088
H         11.89813       -1.84735       -2.19447
H          9.09443       -1.03493       -1.70750
H          9.54068       -2.24000       -2.94983
H          8.18159        0.48539       -3.42228
H          7.35997       -1.08185       -3.45618
H          9.67932        1.23708       -5.15935
H          8.55112       -2.51691       -7.98879
H          7.41547       -2.90081       -4.38973
H          5.67593       -2.33639       -6.00267
H          5.78445       -4.08796       -5.65697
H          5.64891       -3.74102       -7.93525
H          8.81206       -4.52988       -6.59939
H          8.05686       -5.16142       -5.12767
H          9.50266       -4.13537       -5.00766
H         10.86453       -0.93249       -9.26394
H          9.86164        0.53853       -9.37469
H          8.95035       -2.35330      -10.03018
H          9.26039       -1.02640      -11.16732
H          6.49755       -2.43308      -10.47929
H          6.89912       -1.28998      -11.80517
H          5.09156       -0.55068       -9.44113
H          4.47523       -1.24220      -10.97347
H          4.08174        1.64454       -9.84339
H          3.31273        0.92900      -11.29210
H          4.50473        2.55048      -12.76083
H          5.39455        3.20316      -11.35419
H          2.53561        5.41760      -11.75615
H          3.40973        4.70221      -13.14940
H          4.32921        5.39655      -11.77175
