54

C          9.61382       -0.46513        6.02180
C          8.98849       -0.33357        4.63084
C          9.23287       -1.55753        3.74104
C          8.61006       -1.43279        2.34594
C          8.87875       -2.65602        1.46017
C          8.25736       -2.52439        0.08115
O          8.59860       -3.69831       -0.68731
C          8.00566       -3.70228       -1.97328
C          8.40246       -4.97518       -2.64309
N          9.45843       -5.07207       -3.54386
C          9.65924       -6.34720       -3.91558
N          8.73456       -7.06659       -3.25506
C          7.93771       -6.25601       -2.45562
C          6.89533       -6.78213       -1.53178
C          7.50791       -7.35574       -0.23351
C          6.42479       -7.76096        0.77215
C          7.03925       -8.40216        2.01965
S          5.73419       -8.74909        3.22875
O          5.21979       -7.49773        3.73560
O          4.85842       -9.76971        2.70265
Cl         6.86847       -9.61605        4.74406
C         10.70387       -6.89807       -4.83241
C         10.28323       -8.21872       -5.43458
C         10.82534       -9.39122       -5.09532
H          9.42286        0.42730        6.63269
H         10.70434       -0.59700        5.95969
H          9.20636       -1.33132        6.56381
H          9.38819        0.56413        4.12962
H          7.90249       -0.16688        4.72827
H          8.83298       -2.45751        4.24032
H         10.31988       -1.72445        3.64130
H          9.00267       -0.52747        1.85148
H          7.52170       -1.27854        2.44480
H          8.48259       -3.56399        1.94384
H          9.96464       -2.80551        1.34647
H          8.63365       -1.62417       -0.44144
H          7.15561       -2.43915        0.14657
H          8.33230       -2.83268       -2.57958
H          6.90102       -3.64541       -1.90850
H         10.01504       -4.28653       -3.87128
H          8.65181       -8.07642       -3.36655
H          6.28961       -7.54852       -2.04133
H          6.21016       -5.95870       -1.28378
H          8.17136       -6.59568        0.20772
H          8.13860       -8.22662       -0.47986
H          5.71745       -8.46628        0.30928
H          5.84605       -6.87090        1.06473
H          7.75030       -7.73992        2.53207
H          7.51893       -9.36769        1.80944
H         11.64079       -7.02067       -4.26272
H         10.90716       -6.15474       -5.62040
H          9.49200       -8.17367       -6.18883
H         11.63150       -9.46256       -4.36146
H         10.50149      -10.32132       -5.56170
