72

C          9.78884       -7.12249        4.96198
C          9.40264       -5.73520        5.47856
C          9.92678       -4.59261        4.60237
C          9.55023       -3.20431        5.12742
C         10.07024       -2.04854        4.26686
C          9.71801       -0.67043        4.83504
C         10.25731        0.50586        4.01506
C          9.95568        1.86857        4.64759
C         10.54510        3.05578        3.87728
C         10.27219        4.43075        4.50897
C         10.86354        4.63750        5.89480
O         12.30861        4.62944        5.81026
C         12.91687        4.52036        7.07847
C         14.41942        4.76164        7.01451
C         14.91958        6.05641        6.36321
C         16.39604        5.78132        5.94129
C         16.63704        4.30465        6.32569
N         15.25475        3.68369        6.31477
C         14.81416        3.23387        4.93871
C         15.42704        1.85083        4.66882
O         15.22792        1.04743        5.84914
C         14.85291        1.21817        3.41256
C         17.40246        6.76118        6.56344
C         18.83801        6.54926        6.06240
C         19.78381        7.66290        6.54285
F         19.30202        8.89046        6.24157
F         19.93700        7.59556        7.90093
F         21.00729        7.54439        5.99332
O         19.36290        5.27546        6.42389
H          9.39375       -7.91697        5.60955
H         10.88176       -7.24168        4.91821
H          9.39676       -7.29368        3.94857
H          9.78150       -5.60509        6.50653
H          8.30456       -5.66011        5.54948
H          9.54127       -4.71446        3.57502
H         11.02608       -4.66930        4.52426
H          9.93429       -3.09057        6.15683
H          8.45168       -3.13084        5.20648
H          9.66639       -2.13995        3.24388
H         11.16771       -2.13389        4.16719
H         10.10368       -0.59773        5.86808
H          8.62147       -0.58004        4.91880
H          9.84174        0.47013        2.99377
H         11.35171        0.39268        3.89589
H         10.33499        1.86077        5.68451
H          8.86286        1.99703        4.73110
H         10.13744        3.06027        2.85403
H         11.63405        2.91610        3.76022
H          9.18456        4.58581        4.59870
H         10.64172        5.22903        3.84651
H         10.53915        3.84155        6.58882
H         10.54080        5.60508        6.31861
H         12.70957        3.53124        7.53744
H         12.51677        5.27895        7.78098
H         14.77766        4.71363        8.05580
H         14.84484        6.88613        7.07750
H         14.29593        6.31076        5.49712
H         16.47311        5.87715        4.84698
H         17.02144        4.20736        7.34885
H         17.30384        3.75403        5.65678
H         15.24350        2.80033        6.86018
H         15.12990        3.98113        4.20044
H         13.71847        3.18851        4.94600
H         16.52110        1.94020        4.56588
H         14.46638        0.46061        5.70915
H         13.76547        1.07260        3.50471
H         15.32727        0.24611        3.22825
H         15.03316        1.85256        2.53381
H         17.38328        6.68112        7.66344
H         17.08808        7.78429        6.31062
H         18.85879        6.58759        4.96072
H         19.72914        5.33445        7.32387
