46

F          1.25740       -0.67432        0.50802
C          2.61516       -0.39703        0.34906
C          3.09726        0.42281        1.53959
C          4.59632        0.76520        1.40982
C          5.13966        1.47050        2.60570
C          5.83482        0.97429        3.68921
C          6.25935       -0.41733        4.01727
C          5.39048       -1.02635        5.14018
C          5.66654       -2.50840        5.44302
C          4.68223       -3.56276        4.80822
C          4.55948       -3.70194        3.24244
C          5.80350       -4.18339        2.40930
F          6.33147       -5.30005        2.91429
F          5.40529       -4.40794        1.14621
F          6.75532       -3.21799        2.37996
F          3.55917       -4.57584        3.00899
F          4.18794       -2.47770        2.73130
F          4.99191       -4.78101        5.30539
F          3.42896       -3.22029        5.23478
F          6.94976       -2.85578        5.11077
F          5.53706       -2.69676        6.79294
N          6.04620        2.05212        4.53984
C          5.51077        3.16616        4.02590
N          4.95127        2.83828        2.85156
C          4.24479        3.77545        2.00645
C          4.81304        4.19281        0.80526
C          4.07314        5.09455        0.03218
N          2.87115        5.56602        0.38914
C          2.35297        5.15151        1.55238
C          2.99615        4.24756        2.40576
H          2.73822        0.15164       -0.59936
H          3.14932       -1.35861        0.27782
H          2.92134       -0.14846        2.46280
H          2.49813        1.34339        1.60473
H          4.76835        1.37342        0.50909
H          5.17966       -0.15684        1.27144
H          7.31929       -0.43110        4.31107
H          6.18960       -1.01393        3.10163
H          4.32288       -0.90592        4.91498
H          5.57460       -0.50172        6.08881
H          6.55568        2.01755        5.41928
H          5.53890        4.15944        4.45866
H          5.79619        3.84625        0.48642
H          4.47313        5.45582       -0.91833
H          1.37280        5.55412        1.81892
H          2.53410        3.91948        3.33709
