52

O          2.92329        2.75767       -0.65640
C          3.87153        1.72135       -0.41787
C          3.82374        0.80733       -1.63417
O          4.79553       -0.21938       -1.43127
C          4.90660       -1.11876       -2.51247
C          6.06903       -2.04521       -2.15474
C          6.43325       -3.13962       -3.19213
N          7.67973       -3.78501       -2.69170
C          7.51181       -4.85910       -1.99467
S          5.91733       -5.44914       -1.84306
C          5.33326       -4.26930       -3.16022
C          4.92209       -5.04377       -4.42517
C          5.98194       -5.92060       -5.10749
O          7.17225       -5.75734       -4.84577
C          5.53623       -6.94688       -6.08508
C          4.19832       -7.08427       -6.50409
C          3.84975       -8.06202       -7.43492
C          4.82764       -8.91934       -7.94876
C          6.16006       -8.79323       -7.53655
C          6.51364       -7.81209       -6.61670
C          6.70501       -2.59070       -4.61109
C          7.63036       -1.35269       -4.79615
C          8.94991       -1.31462       -4.01488
N          9.64558       -2.62351       -3.99928
O          8.01485       -1.28736       -6.17488
H          2.90601        3.34538        0.11338
H          3.62649        1.13850        0.48801
H          4.89637        2.11879       -0.30311
H          4.05452        1.38586       -2.54868
H          2.81202        0.37561       -1.74749
H          5.09990       -0.56671       -3.45442
H          3.95879       -1.67865       -2.65801
H          5.83994       -2.52702       -1.19174
H          6.94905       -1.41467       -1.97078
H          8.65130       -3.42623       -3.14123
H          8.35019       -5.38393       -1.53313
H          4.41744       -3.82105       -2.75431
H          4.53902       -4.32524       -5.17078
H          4.05092       -5.66322       -4.16410
H          3.41860       -6.42748       -6.11749
H          2.81350       -8.15875       -7.75883
H          4.55149       -9.68822       -8.67116
H          6.92085       -9.46416       -7.93635
H          7.54595       -7.69698       -6.28667
H          5.73922       -2.32702       -5.06822
H          7.12521       -3.40832       -5.21197
H          7.08497       -0.43458       -4.51345
H          8.76119       -1.02620       -2.97131
H          9.56303       -0.52217       -4.46876
H          9.77088       -2.97307       -4.95308
H         10.57981       -2.52575       -3.59734
H          7.22895       -1.16116       -6.73026
