69

C          2.54373       13.14190       -4.43634
C          3.27483       13.16137       -3.09182
C          4.20193       11.95806       -2.88386
C          4.92592       11.97385       -1.53395
C          5.84566       10.76930       -1.30685
C          6.53444       10.79534        0.06209
C          7.43801        9.58222        0.32150
C          8.04438        9.64555        1.71497
O          8.81207        8.43489        2.03120
C         10.13035        8.46741        1.78576
O         10.74636        9.40002        1.30923
C         10.76348        7.13998        2.22599
C         12.24497        7.08017        1.98755
C         13.08726        8.09552        2.52854
C         14.44779        8.07367        2.33653
C         15.04533        7.02285        1.58991
C         14.21046        5.98483        1.04247
C         12.81354        6.04969        1.25684
C         14.81466        4.92950        0.30745
C         16.17414        4.88412        0.11579
N         16.91817        5.90771        0.66173
C         16.43518        6.94040        1.36439
C         17.44424        7.95334        1.87016
C         18.81536        7.62055        1.51646
C         19.93448        7.29045        1.19593
C         16.93159        3.85152       -0.66316
C         17.31172        4.33580       -2.08474
C         18.35931        3.45411       -2.77958
C         17.88452        2.02836       -3.07951
S         19.23620        1.08141       -3.81365
O         19.50988        1.58266       -5.14432
O         20.27301        0.95723       -2.81961
O         18.53404       -0.37600       -3.95918
H          1.88951       14.01694       -4.55129
H          1.91632       12.24367       -4.53718
H          3.25262       13.14488       -5.27784
H          2.53756       13.19496       -2.27174
H          3.86326       14.09059       -3.00497
H          4.94546       11.92469       -3.69990
H          3.61485       11.02677       -2.97303
H          4.17823       12.01548       -0.72240
H          5.51559       12.90346       -1.44713
H          6.60941       10.73222       -2.10301
H          5.26039        9.83816       -1.40295
H          5.76379       10.84976        0.85067
H          7.12822       11.72107        0.15366
H          8.24424        9.54411       -0.42838
H          6.85629        8.65157        0.22281
H          7.26717        9.66914        2.48975
H          8.70694       10.51347        1.83067
H         10.23978        6.31647        1.72164
H         10.54804        7.02042        3.30119
H         12.63881        8.90832        3.09771
H         15.06189        8.86762        2.76020
H         12.18107        5.26712        0.83344
H         14.19441        4.13596       -0.10929
H         17.94278        5.90152        0.54440
H         17.34900        8.03563        2.96645
H         17.18134        8.94646        1.46662
H         20.94499        7.04177        0.93804
H         16.32264        2.93912       -0.71237
H         17.84799        3.58361       -0.10936
H         17.72279        5.35630       -2.02397
H         16.39789        4.41219       -2.69493
H         19.26730        3.40611       -2.15784
H         18.65076        3.93725       -3.72340
H         17.05200        2.00512       -3.79643
H         17.60112        1.46681       -2.17809
H         18.43466       -0.55396       -4.91445
