47

C          9.01555       -0.30638       -3.02098
C          7.88580       -0.24022       -1.99106
C          8.36826        0.15507       -0.58985
C          7.23462        0.22406        0.43886
C          7.71234        0.61918        1.83912
C          6.54569        0.64982        2.85638
C          6.98513        1.03855        4.23699
C          7.44576        0.09002        5.13546
C          7.85074        0.41692        6.45394
C          8.34385       -0.60282        7.44220
C          9.51771       -1.42504        6.90234
O         10.47444       -0.51366        6.39133
C         11.69283       -1.14067        5.95900
C         12.64016       -0.03381        5.53360
O         12.99570        0.82403        6.61054
N          7.79163        1.67032        6.89156
N          7.36768        2.57681        6.01358
C          6.97602        2.37165        4.73979
N          6.42398        3.47747        4.08417
O          6.61773        4.68919        4.78483
O          6.86220        3.60372        2.76400
H          8.63610       -0.59281       -4.01066
H          9.77891       -1.04377       -2.73239
H          9.51800        0.66633       -3.12769
H          7.37712       -1.21726       -1.93600
H          7.12078        0.48005       -2.32692
H          8.87962        1.13237       -0.64066
H          9.12962       -0.56793       -0.24846
H          6.72339       -0.75281        0.48836
H          6.47305        0.94657        0.09643
H          8.19920        1.60590        1.80916
H          8.47475       -0.09376        2.19453
H          6.10123       -0.35457        2.92030
H          5.75508        1.32232        2.49838
H          7.47748       -0.95391        4.81786
H          7.51998       -1.28507        7.70792
H          8.63843       -0.06837        8.35424
H          9.18811       -2.12694        6.10937
H          9.93914       -2.03624        7.72079
H         11.49165       -1.82627        5.11364
H         12.12693       -1.72116        6.79315
H         12.18545        0.53563        4.69965
H         13.57478       -0.47910        5.16432
H         12.17075        1.13448        7.01773
H          7.30216        3.53415        6.37312
H          7.46021        5.06256        4.43796
H          6.07804        3.93930        2.28483
