55

C          2.68454        1.19062        1.49273
C          2.10955        0.69626        0.16382
C          1.93598       -0.82635        0.10960
C          1.26347       -1.34848       -1.16699
N          2.04655       -1.11893       -2.39720
C          1.69434       -0.09131       -3.20936
O          0.80765        0.72523       -2.95212
C          2.49387        0.06507       -4.53377
N          1.95220        1.16434       -5.30594
N          0.96006        0.91647       -6.21942
C          0.60535        2.09416       -6.66423
N          1.32023        3.09341       -6.04630
C          2.15648        2.49429       -5.14122
N          3.04064        3.16859       -4.39199
C          3.32378        2.98759       -2.95655
C          2.65699        4.08335       -2.11528
C          1.12348        3.98297       -2.05171
C          0.43747        5.30061       -1.65809
S          0.13267        6.34171       -3.09869
O          1.39675        6.72492       -3.71490
O         -0.91468        5.73910       -3.88870
O         -0.50766        7.66383       -2.42340
N          1.05482        4.52911       -5.98707
N          2.28218        5.18992       -6.25682
N         -0.01596        4.94327       -6.73611
C          3.07476       -2.10645       -2.71595
H          2.79933        2.28376        1.49765
H          3.67372        0.75409        1.69267
H          2.02987        0.92474        2.33514
H          2.77083        1.01629       -0.65857
H          1.13484        1.17312       -0.02711
H          1.31065       -1.15523        0.95583
H          2.91294       -1.31886        0.25406
H          0.29145       -0.86072       -1.31258
H          1.09213       -2.43270       -1.09049
H          2.41257       -0.82593       -5.16816
H          3.55954        0.26264       -4.34838
H         -0.16052        2.25812       -7.41263
H          3.16355        4.11931       -4.76825
H          4.41374        3.02074       -2.82140
H          2.97483        1.99863       -2.64385
H          2.96075        5.06109       -2.52101
H          3.07574        4.02844       -1.09799
H          0.83146        3.21474       -1.32319
H          0.70680        3.63607       -3.00872
H          1.03192        5.89984       -0.95415
H         -0.55879        5.13782       -1.22583
H          0.16815        8.36928       -2.43216
H          2.41142        5.34156       -7.26590
H          2.18432        6.09992       -5.79490
H         -0.88292        4.89853       -6.20339
H         -0.07047        4.62539       -7.70739
H          3.59787       -2.39298       -1.79504
H          3.82693       -1.70253       -3.40151
H          2.63786       -3.01355       -3.16318
