82

C          1.42447        7.02766      -10.67046
C          2.95309        7.03702      -10.58573
C          3.48016        6.99420       -9.14663
C          5.00937        6.99450       -9.04499
C          5.52305        6.93238       -7.60241
C          7.05116        6.93401       -7.48045
C          7.53918        6.82827       -6.03134
C          9.06450        6.83187       -5.87664
C          9.51990        6.62624       -4.42744
C         11.04118        6.64740       -4.23570
C         11.46227        6.27862       -2.80701
C         12.96064        6.27949       -2.56176
O         13.44279        7.64743       -2.60386
C         14.84711        7.74976       -2.56133
P         15.18336        9.47085       -3.09928
C         14.27381       10.61047       -2.00179
C         14.23986       11.93384       -2.77689
O         14.95517       11.98634       -3.79511
N         13.44524       12.93676       -2.35141
C         13.38489       14.18536       -3.13990
C         14.08611       15.37927       -2.48158
C         15.59101       15.19019       -2.25862
C         16.26016       16.43862       -1.67761
C         12.70820       12.91065       -1.09095
C         16.98864        9.73972       -3.18745
O         17.41827        8.79063       -4.15230
C         18.84493        8.55881       -4.12364
O         19.29094        8.12068       -2.88272
C         18.87650        6.78877       -2.52011
C         18.75739        6.71085       -1.01568
O         17.61761        7.48928       -0.60050
H          1.07731        7.05959      -11.71242
H          0.98966        7.89391      -10.14949
H          1.00421        6.12158      -10.20877
H          3.34528        7.93675      -11.08973
H          3.35855        6.17735      -11.14590
H          3.08193        6.09610       -8.64181
H          3.07666        7.85634       -8.58626
H          5.40863        7.89806       -9.53882
H          5.41262        6.13767       -9.61310
H          5.12248        6.02587       -7.11518
H          5.11220        7.78470       -7.03278
H          7.45540        7.85265       -7.94128
H          7.46552        6.09494       -8.06665
H          7.13405        5.90386       -5.58328
H          7.11222        7.65841       -5.44128
H          9.47183        7.78263       -6.26411
H          9.49838        6.03759       -6.50909
H          9.12457        5.66142       -4.06406
H          9.06077        7.39786       -3.78475
H         11.43345        7.64409       -4.49747
H         11.50866        5.93826       -4.94136
H         11.09698        5.26645       -2.56606
H         10.98452        6.95288       -2.07660
H         13.49175        5.69556       -3.33683
H         13.20666        5.84950       -1.57487
H         15.35004        7.08499       -3.28970
H         15.29581        7.56136       -1.56730
H         14.63153        9.55716       -4.38980
H         14.80957       10.69063       -1.04325
H         13.29176       10.15761       -1.79947
H         12.31874       14.41034       -3.29912
H         13.83774       13.96214       -4.11299
H         13.59257       15.63664       -1.52906
H         13.91666       16.24456       -3.14293
H         16.06676       14.91739       -3.21434
H         15.76099       14.33479       -1.58182
H         16.14922       17.29931       -2.35281
H         17.33482       16.27992       -1.51806
H         15.81790       16.71896       -0.71030
H         12.44999       11.88690       -0.80100
H         11.77334       13.47129       -1.21496
H         13.28336       13.37466       -0.27531
H         17.41091        9.53845       -2.18578
H         17.17420       10.78335       -3.48907
H         19.38354        9.49652       -4.33130
H         18.99816        7.82610       -4.93200
H         19.62757        6.06175       -2.87247
H         17.90657        6.54934       -2.98541
H         19.68065        7.09914       -0.55504
H         18.63664        5.65301       -0.72401
H         17.64764        7.56380        0.36558
