62

C          8.70447       -4.29950        0.80389
C          7.75174       -3.13751        0.51137
C          8.13756       -1.84956        1.25194
C          7.18924       -0.70313        0.94693
O          7.57870        0.44932        1.71862
C          6.70390        1.54277        1.55434
C          7.08954        2.58862        2.62805
C          8.53086        2.93338        2.48120
N          8.71779        4.09948        1.95917
C          7.43404        4.79307        1.66685
C          6.43013        3.99527        2.51327
C          4.98499        4.08988        2.01929
C          3.93852        3.49714        2.97793
C          3.85274        4.10400        4.38968
C          3.42743        5.58671        4.46456
S          4.80940        6.70621        4.77016
O          5.42532        6.35620        6.03518
O          5.61989        6.83726        3.57802
O          4.05206        8.12640        4.93430
C         10.02674        4.72950        1.73593
C         10.13509        6.02335        2.54977
O          9.66921        5.72995        3.84409
C          9.72648        6.85071        4.74247
C          9.01179        6.49446        6.02529
O          9.74807        5.49923        6.71462
C          9.12677        5.12561        7.93801
H          8.39662       -5.20884        0.27116
H          8.72910       -4.53606        1.87785
H          9.73246       -4.06334        0.49209
H          6.72469       -3.42520        0.79234
H          7.72777       -2.94525       -0.57441
H          9.16300       -1.55147        0.97790
H          8.13930       -2.02835        2.33959
H          6.14809       -0.97300        1.21063
H          7.20645       -0.44863       -0.13014
H          5.65009        1.24115        1.70315
H          6.78565        1.97644        0.53668
H          6.91927        2.12092        3.60914
H          9.37695        2.29742        2.74411
H          7.25630        4.73764        0.58041
H          7.49510        5.84452        1.96736
H          6.48811        4.43657        3.51881
H          4.88312        3.60105        1.03724
H          4.76637        5.15423        1.84622
H          4.11249        2.41544        3.09717
H          2.95216        3.58141        2.49552
H          4.79237        3.96230        4.94630
H          3.10555        3.52793        4.95273
H          2.74933        5.76213        5.30991
H          2.93424        5.94527        3.55022
H          3.94226        8.30752        5.88824
H         10.14139        4.93769        0.66210
H         10.79072        4.00580        2.04534
H          9.54287        6.83554        2.08219
H         11.19446        6.34428        2.53877
H          9.22719        7.72336        4.28210
H         10.78112        7.10976        4.94503
H          7.98486        6.14719        5.80319
H          8.92072        7.41531        6.63696
H          9.76347        4.36285        8.40101
H          8.11784        4.70666        7.76781
H          9.03572        5.98602        8.62568
