54

C          0.67440       -0.32841       -1.76175
C          1.84033       -0.30497       -1.12023
N          2.78750        0.76190       -1.26827
C          2.48193        2.07142       -1.62309
C          3.64663        2.80040       -1.64182
N          4.63712        1.90198       -1.29409
C          4.12296        0.68057       -1.07238
C          4.98583       -0.51433       -0.72916
C          5.22030       -1.57236       -1.88666
C          5.71120       -1.06115       -3.30200
C          7.10007       -0.33002       -3.50895
C          8.47452       -0.99516       -3.09487
C          8.94359       -2.37635       -3.70721
C          9.15981       -2.56081       -5.26406
C         10.18169       -1.61944       -6.00539
F         11.35332       -1.57222       -5.35180
F         10.38427       -2.10358       -7.23896
F          9.68649       -0.37060       -6.11100
F          9.60366       -3.83214       -5.40980
F          7.95704       -2.44624       -5.88633
F         10.11563       -2.65424       -3.08931
F          8.02979       -3.31472       -3.33845
F          9.42238       -0.06605       -3.36956
F          8.43562       -1.17509       -1.74700
F          7.14780       -0.00216       -4.81594
F          7.03668        0.84305       -2.79086
F          5.65722       -2.12004       -4.13044
F          4.76902       -0.14684       -3.71160
F          6.05168       -2.51595       -1.41296
F          4.00263       -2.14122       -2.12389
F          6.19183       -0.03511       -0.31860
F          4.42519       -1.20039        0.30603
C          3.92988        4.24106       -1.90949
C          2.76684        5.00902       -2.57016
C          3.14002        6.45630       -2.80820
C          3.83321        6.83181       -3.96798
C          4.21707        8.15982       -4.16693
C          3.91016        9.12899       -3.20783
C          3.21609        8.76544       -2.05085
C          2.83426        7.43633       -1.85345
H         -0.00861       -1.15587       -1.58143
H          0.36152        0.43191       -2.47637
H          2.16442       -1.08227       -0.43335
H          1.46006        2.38585       -1.78898
H          5.63328        2.10609       -1.23178
H          4.82564        4.31384       -2.54818
H          4.19722        4.73185       -0.95806
H          1.87713        4.96225       -1.92319
H          2.50513        4.52275       -3.52284
H          4.06668        6.08238       -4.72864
H          4.74888        8.44009       -5.07671
H          4.20485       10.16689       -3.36475
H          2.96463        9.51908       -1.30384
H          2.28290        7.16089       -0.95098
