72

C          0.66829       -0.01542       -0.10142
C          2.18658       -0.07445        0.08258
C          2.74780       -1.50109        0.08391
C          4.27271       -1.55460        0.21777
C          4.85122       -2.97363        0.21833
C          6.38216       -2.99709        0.26557
C          6.98881       -4.40397        0.27080
C          8.52083       -4.39210        0.25759
C          9.15643       -5.78556        0.27666
C         10.68815       -5.74086        0.22045
C         11.33445       -7.13077        0.28643
C         12.84650       -7.05911        0.18989
O         13.37405       -8.40978        0.32307
C         14.75152       -8.48487        0.23033
N         15.14869       -9.91142        0.60479
C         14.72728      -10.11424        2.05460
C         15.12439      -11.40085        2.77532
C         14.96648      -11.18539        4.29180
C         15.31221      -12.45036        5.08209
S         15.25673      -12.06458        6.85549
O         16.33718      -11.15663        7.16252
O         13.89247      -11.77296        7.22718
Cl        15.74653      -13.91808        7.64352
C         16.62350      -10.06675        0.34062
C         16.72694      -10.63961       -1.09004
O         15.37708      -10.62274       -1.60332
C         14.46274      -10.84041       -0.60784
N         14.18932      -12.22548       -0.39565
O         15.29411      -13.02119       -0.02834
O         13.11956      -12.38794        0.51377
H          0.30167        1.02029       -0.09530
H          0.14612       -0.55656        0.70185
H          0.36369       -0.46957       -1.05615
H          2.46447        0.42484        1.02630
H          2.67643        0.50441       -0.71895
H          2.44599       -2.01172       -0.84783
H          2.28423       -2.07561        0.90542
H          4.57733       -1.03718        1.14464
H          4.72695       -0.98013       -0.60903
H          4.50665       -3.50917       -0.68393
H          4.44553       -3.53681        1.07709
H          6.72844       -2.44950        1.15981
H          6.77707       -2.43677       -0.60028
H          6.61977       -4.96624       -0.60492
H          6.63132       -4.95617        1.15763
H          8.88796       -3.81465        1.12420
H          8.86948       -3.84643       -0.63687
H          8.77679       -6.37679       -0.57470
H          8.83806       -6.32318        1.18676
H         11.06467       -5.12134        1.05248
H         11.00127       -5.23065       -0.70662
H         10.95317       -7.76402       -0.53067
H         11.06086       -7.62759        1.23122
H         13.27497       -6.43490        0.99480
H         13.16863       -6.64347       -0.78134
H         15.27155       -7.81875        0.94607
H         15.13038       -8.30082       -0.79107
H         13.64038       -9.98018        2.06436
H         15.17043       -9.25714        2.58479
H         16.17172      -11.68061        2.57623
H         14.47064      -12.22884        2.46508
H         13.93412      -10.88210        4.52215
H         15.62531      -10.36435        4.61391
H         16.33276      -12.80856        4.88903
H         14.59542      -13.26667        4.92253
H         17.05083      -10.74538        1.08290
H         17.10581       -9.08716        0.44446
H         17.12592      -11.66168       -1.08873
H         17.31785      -10.00872       -1.76206
H         13.50241      -10.35370       -0.81007
H         15.38589      -12.93803        0.94553
H         12.56674      -13.07363        0.09271
