61

C          0.84098        0.07503        0.25223
C          2.35458        0.28261        0.16927
C          2.92447        0.02255       -1.22877
C          4.43621        0.24565       -1.32789
C          5.00684       -0.02912       -2.72250
C          6.51032        0.24099       -2.83487
C          7.08648       -0.07531       -4.21832
C          8.57248        0.26922       -4.35793
C          9.15790       -0.10888       -5.72162
C         10.62865        0.28573       -5.89055
C         11.20524       -0.12290       -7.24931
C         12.65907        0.31867       -7.45139
C         13.21694       -0.12040       -8.81527
C         14.64122        0.36805       -9.00499
N         15.21745       -0.15650      -10.35152
C         16.75737       -0.11878      -10.50213
C         17.44835        1.23661      -10.17807
N         17.52842        1.38349       -8.72987
N         18.79000        1.04365      -10.73989
N         16.61624        2.32947      -10.68040
C         14.55324        0.37807      -11.46652
C         13.96023        0.73352      -12.45100
H          0.46233        0.26278        1.26641
H          0.56523       -0.95473       -0.02071
H          0.30851        0.75149       -0.43300
H          2.85909       -0.37831        0.89427
H          2.60313        1.31299        0.47539
H          2.41131        0.67486       -1.95752
H          2.68653       -1.01293       -1.53086
H          4.94974       -0.39722       -0.59121
H          4.66984        1.28516       -1.03652
H          4.47111        0.58911       -3.46431
H          4.80198       -1.07846       -2.99927
H          7.04742       -0.35115       -2.07312
H          6.70792        1.29961       -2.58979
H          6.51410        0.47375       -4.98674
H          6.93667       -1.14712       -4.43791
H          9.14391       -0.23992       -3.56222
H          8.71187        1.35097       -4.18682
H          8.56190        0.36802       -6.51946
H          9.05204       -1.19734       -5.87353
H         11.22812       -0.17320       -5.08521
H         10.73042        1.37751       -5.76260
H         10.58257        0.30427       -8.05408
H         11.13781       -1.21912       -7.35909
H         13.28872       -0.09368       -6.64531
H         12.72422        1.41628       -7.36662
H         12.57203        0.26904       -9.61846
H         13.18432       -1.22371       -8.87730
H         15.33287       -0.00720       -8.24155
H         14.73570        1.45700       -9.05936
H         14.98933       -1.16528      -10.34500
H         16.94570       -0.42897      -11.53734
H         17.14317       -0.88406       -9.81910
H         18.34500        0.88607       -8.37196
H         17.61057        2.36313       -8.45670
H         18.80337        1.07976      -11.76067
H         19.43615        1.75049      -10.38696
H         17.00326        3.23201      -10.39542
H         16.59364        2.33230      -11.70094
H         13.43244        1.07732      -13.31897
