69

C          2.90432       -1.30608        1.49830
C          2.66088        0.18956        1.56712
O          2.64766        0.81240        0.24380
P          3.98310        1.23649       -0.52719
O          4.79414        0.13886       -1.13040
C          3.30100        2.36672       -1.77335
C          2.50165        1.61185       -2.86203
C          2.85646        2.06211       -4.29033
O          1.92770        1.57344       -5.26166
C          2.14629        0.21114       -5.60520
C          3.50981        0.01831       -6.24664
N          4.63932        0.47277       -5.32084
C          4.30750        1.85433       -4.77888
C          5.89465        0.47610       -6.12628
C          6.76722        1.47325       -6.18917
C          4.84839       -0.53204       -4.16321
O          5.29589       -1.70884       -4.74047
C          4.97267       -2.92619       -4.11305
C          4.48292       -2.95931       -2.80749
C          4.15086       -4.18758       -2.20957
C          3.62724       -4.22931       -0.79796
C          4.34658       -5.35533       -2.95044
C          4.87944       -5.29778       -4.23920
C          5.21634       -4.09220       -4.86551
C          5.84362       -4.13023       -6.25333
C          4.96654       -3.51421       -7.35903
C          7.27777       -3.56820       -6.27870
O          4.78202        2.17817        0.49044
C          6.12918        1.86097        0.97196
C          6.93358        3.14063        1.04619
H          2.83700       -1.73279        2.50907
H          3.89732       -1.53634        1.09207
H          2.14764       -1.79627        0.87289
H          3.41170        0.70286        2.18657
H          1.67017        0.41818        1.97946
H          4.17730        2.88850       -2.18806
H          2.69133        3.13366       -1.27980
H          1.42864        1.80374       -2.73553
H          2.62885        0.52716       -2.74192
H          2.72499        3.15656       -4.32115
H          1.37951       -0.04892       -6.34698
H          2.00230       -0.46029       -4.73989
H          3.60058        0.63200       -7.15223
H          3.70368       -1.03209       -6.49298
H          4.47701        2.53442       -5.62156
H          5.03592        2.07723       -3.98934
H          6.02745       -0.47016       -6.64480
H          6.67364        2.42095       -5.66352
H          7.65188        1.34185       -6.81043
H          3.89062       -0.65405       -3.64422
H          5.57635       -0.06347       -3.48400
H          4.39858       -2.04462       -2.21512
H          2.74650       -3.58317       -0.67877
H          4.38654       -3.87763       -0.08359
H          3.34165       -5.24820       -0.50977
H          4.10051       -6.32300       -2.51098
H          5.04887       -6.22621       -4.78836
H          5.92346       -5.20294       -6.49176
H          4.95449       -2.41653       -7.30774
H          3.93027       -3.87349       -7.29667
H          5.35797       -3.78208       -8.34990
H          7.30064       -2.48941       -6.07241
H          7.73503       -3.73458       -7.26403
H          7.90729       -4.06223       -5.52717
H          6.57734        1.11986        0.29583
H          6.01421        1.40221        1.96522
H          7.06630        3.58615        0.05106
H          7.92865        2.92470        1.45934
H          6.44613        3.87763        1.69712
