38

Br         1.11334       -0.00509        1.74215
C          2.94171        0.05166        1.06181
C          3.24840       -1.21068        0.25510
C          4.68683       -1.14657       -0.26898
S          5.19430       -2.71633       -1.05943
C          4.29746       -2.73681       -2.70476
C          4.86288       -3.81777       -3.56728
C          4.53651       -5.16676       -3.33993
C          5.14097       -6.17061       -4.08982
C          6.08327       -5.86766       -5.09180
C          6.37519       -4.51654       -5.33530
C          5.77908       -3.50410       -4.58347
C          6.74089       -6.96245       -5.88446
C          6.95483       -2.36143       -1.50652
C          7.88666       -3.45683       -0.98197
C          7.68853       -4.78799       -1.68335
Br         8.73542       -6.22377       -0.89210
Br         9.69885       -2.74356       -1.26846
H          3.59218        0.14620        1.93898
H          3.01361        0.96146        0.45481
H          2.53223       -1.29353       -0.57500
H          3.11713       -2.09581        0.89484
H          5.40668       -1.02905        0.55550
H          4.84586       -0.33486       -0.99402
H          4.40184       -1.73184       -3.13428
H          3.25382       -2.91227       -2.41045
H          3.81120       -5.43272       -2.56760
H          4.88113       -7.21277       -3.89656
H          7.08141       -4.25257       -6.12398
H          6.01691       -2.46056       -4.80354
H          7.09687       -7.76862       -5.22837
H          7.59126       -6.58718       -6.46589
H          6.02672       -7.41472       -6.58915
H          7.19023       -1.39147       -1.05349
H          7.00363       -2.27804       -2.60029
H          7.79888       -3.56493        0.10713
H          7.95573       -4.73399       -2.74406
H          6.64325       -5.11243       -1.59497
