70

C          6.08980       -4.39862        4.60179
C          6.16825       -3.40935        3.43656
C          6.87593       -3.97855        2.20130
C          6.96527       -2.98743        1.03635
C          7.67559       -3.55188       -0.19853
C          7.77897       -2.55052       -1.35408
C          8.49889       -3.11444       -2.58315
C          8.62155       -2.10166       -3.72508
C          9.33625       -2.66856       -4.97011
C          9.37150       -1.64709       -6.12913
N         10.35814       -0.53923       -5.81793
C         11.73695       -1.10138       -5.54872
C         11.65717       -2.15120       -4.43187
N         10.66821       -3.18899       -4.67081
C         11.13319       -4.28621       -5.53622
O         12.27624       -4.89798       -5.02405
C         12.05232       -5.73601       -3.86623
C         13.38012       -6.37097       -3.49094
C         13.26398       -7.37666       -2.33981
C         14.60989       -8.01661       -1.97974
C         14.51642       -9.07681       -0.87733
C         15.86874       -9.70885       -0.53795
C         10.36867        0.54670       -6.87055
C          9.08745        1.31509       -6.87375
C          8.26293        1.52546       -7.90623
Br         8.53417        0.80645       -9.62575
Br         8.65790        2.10061       -5.18128
H          5.57648       -3.95946        5.46793
H          7.09254       -4.70794        4.93250
H          5.54103       -5.30895        4.31793
H          6.69163       -2.49490        3.76387
H          5.15064       -3.08942        3.15507
H          6.34955       -4.89014        1.86738
H          7.89306       -4.30461        2.48253
H          7.49025       -2.07621        1.37379
H          5.94812       -2.66227        0.75518
H          7.14477       -4.45566       -0.54517
H          8.68919       -3.88686        0.08396
H          8.30852       -1.64622       -1.00399
H          6.76641       -2.21562       -1.63977
H          7.96239       -4.00641       -2.95074
H          9.50503       -3.46267       -2.30201
H          9.13541       -1.19933       -3.34201
H          7.62024       -1.75914       -4.03485
H          8.73518       -3.51666       -5.33827
H          8.39599       -1.17152       -6.29333
H          9.70836       -2.10041       -7.07134
H         10.02553       -0.07754       -4.94927
H         12.38617       -0.25905       -5.27403
H         12.09230       -1.52812       -6.49691
H         11.44853       -1.65073       -3.47152
H         12.64078       -2.63002       -4.33208
H         11.42668       -3.95774       -6.55524
H         10.28370       -4.98981       -5.62953
H         11.30108       -6.50501       -4.12772
H         11.64351       -5.13116       -3.03833
H         14.09414       -5.57456       -3.22353
H         13.79091       -6.87172       -4.38220
H         12.54700       -8.16932       -2.61578
H         12.84253       -6.88122       -1.44774
H         15.31785       -7.22788       -1.66964
H         15.04665       -8.47335       -2.88515
H         13.80977       -9.86361       -1.19117
H         14.08122       -8.62382        0.02960
H         16.31431      -10.19586       -1.41811
H         15.77141      -10.47012        0.24776
H         16.58505       -8.95378       -0.18111
H         10.54241        0.07234       -7.84559
H         11.21823        1.20487       -6.63377
H          7.37072        2.14478       -7.83320
