63

O          1.38858        0.04655        0.86967
C          1.64675       -1.34978        0.94506
C          0.32247       -2.14150        0.95867
F         -0.37102       -2.01047       -0.19284
F          0.54875       -3.45613        1.17287
F         -0.46899       -1.68001        1.96653
C          2.51402       -1.77912       -0.23877
C          3.84446       -1.02664       -0.46706
N          3.61876        0.29705       -1.05935
C          3.88986        1.48573       -0.50384
N          3.69215        2.62424       -1.19584
Si         3.52036        4.34716       -0.62448
C          2.07803        4.38817        0.56495
C          5.11903        4.87138        0.20291
C          3.21591        5.26960       -2.21931
N          4.38202        1.53302        0.74029
C          4.56857        0.35883        1.58364
C          4.75892       -0.93989        0.77951
C          6.21702       -1.40526        0.52026
C          7.23848       -0.63900       -0.41797
C          7.96912        0.70426        0.02218
C          8.78853        0.70292        1.36775
C          9.85852        1.85813        1.58775
C          9.43437        3.38211        1.57911
C          8.39851        3.95683        2.62720
C          8.70821        3.83530        4.16654
F          9.94714        4.25732        4.44525
F          7.82088        4.60095        4.82789
F          8.56342        2.56411        4.58155
F          8.28869        5.27595        2.33852
F          7.17717        3.37590        2.41395
F         10.58209        4.08226        1.72942
F          8.91769        3.66592        0.34923
F         10.42732        1.59803        2.79282
F         10.80693        1.73001        0.63107
F          7.90676        0.75044        2.40720
F          9.48692       -0.45283        1.44340
F          8.80008        1.00166       -1.00234
F          7.02414        1.68808        0.09750
F          8.21074       -1.51497       -0.74769
F          6.55694       -0.30668       -1.56285
F          6.81963       -1.58381        1.73464
F          6.10645       -2.64859       -0.05585
H          0.72132        0.26955        1.54129
H          2.13910       -1.61153        1.90259
H          1.91870       -1.70008       -1.16159
H          2.75759       -2.84462       -0.11774
H          4.37659       -1.61258       -1.22914
H          3.08546        0.31008       -1.92221
H          3.50582        2.47500       -2.18520
H          2.23315        3.70586        1.41221
H          1.14169        4.10790        0.06465
H          1.95404        5.40071        0.97461
H          5.23025        4.49960        1.23084
H          5.12746        5.96894        0.27793
H          6.00483        4.57479       -0.37451
H          2.30640        4.92236       -2.72920
H          4.06445        5.17924       -2.91182
H          3.08098        6.33912       -2.00457
H          4.82249        2.40044        1.02576
H          3.68950        0.24100        2.23280
H          5.43262        0.53991        2.23342
H          4.44034       -1.75072        1.45308
