56

F          3.74190        0.07548        1.10018
C          2.79103       -0.43909        2.00709
C          2.73925       -1.95646        1.93232
C          4.00801       -2.67874        2.40019
N          5.11195       -2.47485        1.46192
C          6.41290       -2.53771        1.75267
N          7.32669       -2.02305        0.89986
C          7.02185       -1.09374       -0.18420
C          6.37272       -1.77191       -1.39669
O          5.31813       -2.39251       -1.30905
O          7.09061       -1.60557       -2.50045
C          6.57557       -2.18547       -3.75430
C          5.80586       -1.14701       -4.55399
C          5.34265       -1.70877       -5.90656
C          4.59448       -0.67258       -6.74869
N          6.83713       -3.11317        2.90005
C          8.08928       -2.85195        3.62206
C          8.82712       -4.14327        3.99204
C          9.54754       -4.84504        2.83434
S         11.14791       -4.05274        2.46775
C         11.10548       -3.70186        0.74688
S          9.78209       -3.79319       -0.25271
N         12.35447       -3.31501        0.27644
C         12.59904       -2.63030       -0.92914
N         13.86048       -2.35185       -1.07526
C         14.50164       -2.86654        0.04996
C         13.60786       -3.45075        0.89775
H          1.81885       -0.00060        1.74104
H          3.08085       -0.08702        3.01026
H          2.48412       -2.26971        0.90747
H          1.90668       -2.29132        2.57061
H          3.78978       -3.75610        2.50251
H          4.31159       -2.30223        3.39076
H          4.90155       -2.37787        0.45006
H          8.21393       -2.54503        0.80060
H          7.95859       -0.60868       -0.47888
H          6.32613       -0.32341        0.18129
H          5.95745       -3.05646       -3.50089
H          7.48321       -2.51371       -4.27644
H          6.44749       -0.26586       -4.71366
H          4.93287       -0.81116       -3.97121
H          4.69578       -2.58488       -5.73677
H          6.21684       -2.07791       -6.46771
H          3.69920       -0.30352       -6.22826
H          4.26957       -1.10121       -7.70555
H          5.23138        0.19500       -6.97267
H          6.14091       -3.65451        3.40279
H          7.84997       -2.29300        4.54016
H          8.71704       -2.19707        3.00434
H          8.11144       -4.85631        4.43363
H          9.53929       -3.91155        4.79804
H          8.96675       -4.84633        1.89835
H          9.78326       -5.88449        3.09625
H         11.78492       -2.37998       -1.60073
H         15.57805       -2.78979        0.16801
H         13.73314       -3.98231        1.83247
