41

O          8.60429       -4.13647        5.57202
C          7.39635       -3.93125        6.31643
C          7.18434       -2.41956        6.42179
N          7.21136       -1.69208        5.14595
C          6.16734       -2.06386        4.19920
C          5.84130       -0.92304        3.22671
C          7.07180       -0.45405        2.42644
C          6.68296        0.54004        1.29784
C          6.11459        1.79610        1.82181
N          6.67074        2.84861        1.33089
C          7.74171        2.59118        0.33036
C          7.77901        1.02753        0.27364
C          9.18769        0.45052        0.48953
C         10.17135        0.76025       -0.62842
F         10.42427        2.14622       -0.69724
C          7.42031        3.29588       -0.98464
O          4.78018       -1.29124        2.33589
H          8.82674       -5.07903        5.59124
H          7.47023       -4.35635        7.33237
H          6.54041       -4.41630        5.81085
H          7.97729       -1.99210        7.05259
H          6.22506       -2.22158        6.92477
H          8.13000       -1.85428        4.72960
H          5.24557       -2.28492        4.75881
H          6.40565       -2.97242        3.59973
H          5.45550       -0.08271        3.82939
H          7.54138       -1.32748        1.94713
H          7.80817       -0.01261        3.11409
H          5.85001        0.03129        0.77262
H          5.30187        1.88240        2.54665
H          6.38618        3.79896        1.57879
H          8.67138        3.00258        0.75087
H          7.44231        0.72628       -0.72979
H          9.12825       -0.64722        0.54947
H          9.61177        0.79424        1.44680
H          9.78574        0.45388       -1.61397
H         11.13542        0.26402       -0.44936
H          6.48260        2.92363       -1.41948
H          8.23731        3.11106       -1.69190
H          7.34306        4.38414       -0.85309
H          4.80983       -2.25320        2.20022
