49

F          2.18897        2.22628        2.35221
C          2.04914        0.98949        1.71151
C          2.94529        0.95120        0.48057
N          4.37251        1.04003        0.81948
C          5.06944        2.19494        0.95797
N          6.29828        1.86445        1.37076
C          6.40627        0.50036        1.50619
C          5.19582       -0.04343        1.16359
C          4.78733       -1.47450        1.06939
C          4.78038       -2.06147       -0.37108
C          6.16025       -1.97229       -1.03253
C          4.26501       -3.50487       -0.32631
C          4.59605        3.58969        0.71538
C          5.71028        4.63998        0.79818
O          6.84819        4.41554        1.19240
O          5.24687        5.81555        0.40092
C          6.18257        6.96189        0.41488
C          6.90746        7.08909       -0.91514
C          7.79850        8.33942       -0.95214
C          8.52399        8.51597       -2.29208
C          9.41942        9.75637       -2.32930
H          0.99790        0.87287        1.40922
H          2.31326        0.20731        2.43859
H          2.69702        1.77942       -0.19528
H          2.77780        0.01699       -0.06981
H          6.98464        2.62711        1.50720
H          7.32316        0.01901        1.82226
H          3.79790       -1.62200        1.53057
H          5.49086       -2.05555        1.68494
H          4.07484       -1.46826       -0.98168
H          6.90971       -2.54162       -0.46119
H          6.51720       -0.93637       -1.11849
H          6.12907       -2.39363       -2.04575
H          4.93826       -4.14540        0.26329
H          4.20616       -3.92900       -1.33714
H          3.26354       -3.56813        0.12285
H          3.81903        3.85745        1.44991
H          4.11482        3.67422       -0.27101
H          6.87469        6.82728        1.25577
H          5.52534        7.81808        0.60871
H          6.16426        7.13504       -1.72717
H          7.52270        6.19094       -1.08506
H          8.54198        8.28701       -0.13834
H          7.18639        9.23518       -0.74971
H          7.77748        8.57428       -3.10179
H          9.12744        7.61664       -2.49997
H          8.83880       10.67552       -2.16285
H          9.92271        9.85428       -3.30035
H         10.19924        9.71166       -1.55485
