41

C         -0.03899       -0.78864       -0.77451
O          1.30823       -0.49580       -0.41860
C          2.09935       -1.65727       -0.26120
C          3.48280       -1.19086        0.16890
O          4.32505       -2.34517        0.23609
C          5.63125       -2.06310        0.66538
C          6.36939       -3.40171        0.75638
C          7.90296       -3.44266        0.87370
O          8.43047       -3.07850        2.15283
C          8.50788       -1.68639        2.38914
C          9.43696       -0.97965        1.37368
N          8.80314       -1.25658        0.02186
C          8.68017       -2.72206       -0.26248
I          9.69871       -0.14948       -1.65134
C         10.89535       -1.42234        1.44232
C         11.66373       -0.72459        2.57874
N         13.05664       -1.15742        2.55403
H         -0.55424        0.17204       -0.88284
H         -0.53901       -1.38550        0.00924
H         -0.09082       -1.34121       -1.72983
H          2.17204       -2.22570       -1.20944
H          1.67099       -2.33462        0.50330
H          3.43238       -0.68896        1.15247
H          3.87918       -0.46685       -0.56842
H          5.61413       -1.52623        1.63437
H          6.11323       -1.37292       -0.07768
H          6.10459       -3.96923       -0.15048
H          5.96332       -3.97343        1.60283
H          8.18298       -4.50256        0.76949
H          8.93660       -1.55978        3.39256
H          7.51158       -1.20829        2.39072
H          9.35436        0.10849        1.52042
H          7.85497       -0.84787        0.02166
H          9.69692       -3.12074       -0.34984
H          8.16565       -2.84362       -1.22318
H         11.41202       -1.17798        0.50061
H         10.95630       -2.51264        1.57657
H         11.14870       -0.90417        3.54497
H         11.64337        0.36346        2.40943
H         13.16600       -2.08991        2.95420
H         13.64467       -0.53054        3.10163
