61

C          3.50556        5.70779        0.85371
C          2.63368        4.82438       -0.04053
C          2.13050        3.56949        0.67936
C          1.22944        2.66548       -0.17044
N          1.92177        2.01972       -1.30029
C          1.67881        2.45310       -2.56906
O          0.97003        3.44247       -2.81092
C          2.32233        1.64527       -3.70414
C          2.03343        2.16189       -5.13011
C          2.46871        3.65050       -5.35793
N          1.20383        4.36247       -5.60234
C          0.15798        3.53094       -5.44760
N         -1.12698        3.87118       -5.43470
C         -1.65898        5.23395       -5.35484
C         -2.78004        5.50510       -6.37022
C         -3.95020        4.50593       -6.39843
C         -4.70353        4.31905       -5.05922
S         -4.59000        2.61159       -4.50488
O         -5.40755        1.75554       -5.33109
O         -3.18132        2.29950       -4.30241
O         -5.23567        2.69312       -3.02765
N          0.57852        2.24755       -5.40440
C          2.66934        1.21672       -6.17036
C          4.19199        1.19399       -6.13446
O          4.88461        1.91308       -5.43690
O          4.66852        0.28115       -6.99807
C          6.11711        0.19261       -7.08023
C          2.73055        0.84624       -0.98221
H          3.85203        6.60191        0.31836
H          4.39545        5.16611        1.20640
H          2.95146        6.04591        1.74152
H          3.20403        4.52989       -0.93683
H          1.76792        5.39891       -0.40764
H          1.54766        3.86413        1.56783
H          2.98837        2.99267        1.06627
H          0.39986        3.24567       -0.59337
H          0.80492        1.86279        0.45319
H          2.00349        0.59108       -3.63345
H          3.41603        1.63816       -3.58525
H          3.13281        3.74863       -6.22495
H          2.97629        4.06045       -4.47787
H          1.11853        5.33668       -5.33952
H         -1.79062        3.14190       -5.13758
H         -0.85175        5.95511       -5.53525
H         -2.00828        5.40465       -4.32344
H         -2.34704        5.53687       -7.38114
H         -3.16129        6.51719       -6.16122
H         -3.59349        3.53269       -6.76875
H         -4.66934        4.84753       -7.15378
H         -5.77698        4.53013       -5.14574
H         -4.29970        4.92682       -4.23789
H         -6.09609        2.22912       -3.05092
H         -0.05417        1.52024       -5.08645
H          2.35787        1.52331       -7.18087
H          2.29808        0.18832       -6.04087
H          6.31436       -0.58475       -7.82286
H          6.53465       -0.08248       -6.10456
H          6.53632        1.15430       -7.39899
H          3.14227        0.96421        0.02714
H          3.57693        0.73829       -1.66881
H          2.13362       -0.08094       -1.00097
