105

C          7.45416       -8.12504        0.28760
C          7.82616       -6.66122        0.53729
C          8.22380       -6.37522        1.98956
C          8.60189       -4.91382        2.25183
C          9.02766       -4.64529        3.69855
C          9.38973       -3.18346        3.98108
C          9.87491       -2.94997        5.41528
C         10.18394       -1.48557        5.74234
C         10.74581       -1.29228        7.15459
C         11.02179        0.17196        7.51437
C         11.51228        0.40098        8.95377
C         12.80527       -0.34049        9.34299
C         14.03031        0.00529        8.48621
C         14.66555        1.38924        8.69866
N         15.09307        1.75321       10.07080
C         16.00061        1.07318       10.79094
N         16.39171       -0.18787       10.55944
N         16.52294        1.81695       11.78365
C         15.79834        3.08897       11.89527
C         15.09605        3.19685       10.51815
C         15.97798        3.99738        9.53185
O         16.07824        5.30811       10.03135
C         16.86534        6.18201        9.20582
C         16.93337        7.54158        9.87856
C         17.76874        8.55729        9.09166
C         17.85403        9.92044        9.78633
C         18.67286       10.95505        9.00957
C         18.76050       12.31461        9.70988
C         19.56007       13.35804        8.92402
C         19.65308       14.71791        9.62309
C         20.43187       15.76634        8.82278
C         20.53313       17.12722        9.52050
C         21.30326       18.17029        8.70669
Si        13.31523        3.98609       10.79994
C         12.30971        2.70862       11.75165
C         13.49945        5.52364       11.86444
C         12.53791        4.44983        9.14997
H          7.17643       -8.29825       -0.76115
H          6.60142       -8.43235        0.91147
H          8.29314       -8.79659        0.52420
H          6.97840       -6.01236        0.25888
H          8.65697       -6.37280       -0.12890
H          9.07127       -7.02666        2.26858
H          7.39279       -6.66256        2.65802
H          7.74781       -4.26305        1.99385
H          9.42023       -4.62031        1.57068
H          9.89107       -5.28807        3.94678
H          8.21723       -4.95588        4.38135
H          8.51287       -2.54336        3.77988
H         10.17138       -2.85505        3.27331
H         10.77712       -3.56182        5.59462
H          9.11420       -3.32446        6.12271
H          9.26806       -0.88102        5.62483
H         10.90421       -1.08782        5.00530
H         11.66997       -1.88934        7.24732
H         10.04101       -1.71737        7.89090
H         10.09873        0.75719        7.37508
H         11.74106        0.59764        6.79167
H         10.72316        0.08711        9.65587
H         11.63261        1.48338        9.11687
H         12.63411       -1.42414        9.26686
H         13.03055       -0.15421       10.40597
H         13.75633       -0.01504        7.41955
H         14.78080       -0.80032        8.55905
H         13.93735        2.15687        8.41460
H         15.52538        1.49719        8.01649
H         15.95589       -0.73687        9.83025
H         17.05223       -0.64677       11.17246
H         16.99168        1.39246       12.57717
H         16.47936        3.93357       12.05346
H         15.08909        3.04115       12.73657
H         15.52641        3.99315        8.52037
H         16.98349        3.52879        9.44125
H         16.40358        6.25377        8.20211
H         17.87761        5.75144        9.07783
H         17.35465        7.41301       10.88907
H         15.90823        7.92424       10.01208
H         17.34009        8.68734        8.08286
H         18.78785        8.16071        8.94029
H         18.29050        9.78848       10.79198
H         16.83389       10.30996        9.94959
H         18.23248       11.08950        8.00587
H         19.69188       10.56422        8.84124
H         19.21374       12.18187       10.70822
H         17.74071       12.69755        9.89153
H         19.10204       13.49141        7.92796
H         20.57822       12.97330        8.73703
H         20.12634       14.58760       10.61253
H         18.63478       15.09503        9.82465
H         19.95428       15.89900        7.83556
H         21.44840       15.38735        8.61512
H         21.01744       16.99482       10.50305
H         19.51753       17.50166        9.73418
H         22.33243       17.83841        8.50333
H         21.36326       19.13147        9.23549
H         20.81965       18.35551        7.73579
H         12.69426        2.58198       12.77368
H         12.28567        1.72369       11.27365
H         11.27193        3.05987       11.84248
H         13.99925        5.32122       12.82165
H         12.49593        5.90834       12.09798
H         14.06365        6.30504       11.34345
H         12.30599        3.59309        8.50366
H         13.18499        5.14114        8.59240
H         11.59021        4.97365        9.34115
