67

C          0.62520        0.02401        0.50263
C          2.14942        0.08002        0.37836
C          2.86736        0.01673        1.73176
C          4.39508        0.06482        1.60261
C          5.07804        0.03362        2.95608
O          6.52630        0.04033        2.72706
C          7.30422        0.14105        3.81588
O          6.90714        0.20761        4.96424
C          8.77284        0.17890        3.41300
C          9.71961        0.05270        4.61882
C          9.68694       -1.30775        5.33202
C         10.28129       -2.40437        4.45358
C         10.59237       -3.69311        5.21550
O         11.30035       -4.53352        4.32118
C         11.72928       -5.77283        4.91400
C         12.50614       -6.57214        3.88078
C         13.01890       -7.89984        4.44692
N         11.53723       -1.93272        3.84834
C         11.94005       -0.65653        3.81571
N         13.18163       -0.35326        3.38101
C         13.66637        1.01048        3.11844
C         13.70928        1.90167        4.34532
C         13.10151        3.16310        4.32148
C         13.15251        3.99865        5.44206
C         13.80814        3.59788        6.61362
C         14.41164        2.32601        6.62891
C         14.36513        1.49091        5.51689
C         13.88498        4.49817        7.81758
N         11.10545        0.32156        4.19643
H          0.14210        0.07559       -0.48228
H          0.24106        0.86069        1.10466
H          0.29640       -0.90848        0.98478
H          2.44462        1.00554       -0.14380
H          2.49999       -0.75075       -0.25679
H          2.57058       -0.90641        2.25909
H          2.52262        0.85229        2.36532
H          4.69780        0.97867        1.06648
H          4.74729       -0.78721        0.99882
H          4.82869       -0.87315        3.52749
H          4.82243        0.90501        3.57601
H          8.95506        1.13877        2.90531
H          8.96272       -0.59648        2.65616
H          9.45717        0.82958        5.34859
H          8.65383       -1.55537        5.60254
H         10.26255       -1.22414        6.26653
H          9.58891       -2.65834        3.63273
H          9.64786       -4.15996        5.55218
H         11.20507       -3.46836        6.11190
H         10.84289       -6.33535        5.26206
H         12.35730       -5.55545        5.79964
H         13.35174       -5.96319        3.52262
H         11.85623       -6.75435        3.01148
H         13.69402       -7.74303        5.30039
H         13.57539       -8.45860        3.68411
H         12.19258       -8.53981        4.78726
H         12.13855       -2.67530        3.49514
H         13.80526       -1.12670        3.18540
H         13.04695        1.47625        2.33515
H         14.67287        0.88860        2.69477
H         12.59904        3.50798        3.41387
H         12.67884        4.98100        5.40053
H         14.93233        1.99239        7.52862
H         14.84737        0.51189        5.55783
H         13.27228        5.39840        7.69024
H         14.92165        4.81958        7.99768
H         13.54863        3.97904        8.72613
H         11.51453        1.23859        4.37390
