53

C          0.82503       -1.16189        4.69049
C          2.31850       -0.93775        4.82149
O          2.93477       -1.20718        3.55341
C          4.33735       -1.04269        3.57343
C          4.84781       -1.34440        2.16321
C          6.38621       -1.33715        2.03900
C          7.02159        0.05096        2.25327
C          6.70920        0.99712        1.09038
C          7.10446        0.38168       -0.24320
N          6.47752       -0.98838       -0.43464
C          6.88215       -1.95125        0.70493
C          6.39182       -3.38970        0.46489
C          7.40932       -4.37824       -0.15189
C          8.63771       -4.63143        0.75427
C          8.35884       -5.30513        2.10204
C          6.68935       -5.68047       -0.52793
C          6.73013       -1.48948       -1.84121
C          5.96118       -0.69520       -2.85016
C          6.42959       -0.06461       -3.93303
Br         8.25678        0.03199       -4.38263
Br         4.06971       -0.68271       -2.54374
H          0.32925       -0.96062        5.64921
H          0.60945       -2.19915        4.40327
H          0.39345       -0.49387        3.93362
H          2.75233       -1.60541        5.59028
H          2.53806        0.10466        5.12277
H          4.80658       -1.73730        4.30203
H          4.60082       -0.01303        3.88967
H          4.37545       -0.61835        1.47856
H          4.44921       -2.33120        1.88638
H          6.78449       -2.01545        2.81232
H          8.11378       -0.06529        2.34586
H          6.67715        0.48942        3.19871
H          7.25868        1.94305        1.19659
H          5.64142        1.26602        1.07333
H          8.19027        0.22116       -0.31255
H          6.78840        0.99669       -1.09545
H          5.44824       -0.87340       -0.36936
H          7.98331       -1.92217        0.69350
H          5.46715       -3.38207       -0.13691
H          6.07589       -3.79110        1.43965
H          7.80839       -3.94284       -1.08558
H          9.17368       -3.68244        0.92901
H          9.34174       -5.25503        0.18178
H          7.70439       -4.70333        2.74970
H          9.29732       -5.45762        2.65024
H          7.89048       -6.29063        1.98044
H          6.21903       -6.15048        0.34748
H          7.39084       -6.40682       -0.96015
H          5.89629       -5.50068       -1.26821
H          6.41823       -2.53966       -1.87702
H          7.80828       -1.42462       -2.03692
H          5.78144        0.43583       -4.64966
