72

C          9.54678       -5.64487        1.92173
C          9.38087       -4.31394        1.18518
C          9.62416       -3.09421        2.08006
C          9.42064       -1.75622        1.36262
C          9.60962       -0.53855        2.27328
C          9.32796        0.79633        1.57594
C          9.40840        2.00359        2.51635
C          9.02442        3.32153        1.83419
C          8.92604        4.51046        2.77306
O         10.25411        4.87122        3.22929
C         10.22655        5.81896        4.25504
N         11.63144        6.00940        4.61587
C         12.26278        7.14794        4.89529
N         11.59141        8.27337        5.28142
C         10.46225        8.15889        6.10056
N         10.19836        7.23680        6.97302
N          8.94574        7.55685        7.50386
C          8.56935        8.67000        6.92385
O          9.49911        9.11839        5.98871
S          7.15967        9.63568        7.14572
C          6.33622        8.65679        8.46654
C          5.03261        9.35783        8.83144
C         12.14505        9.63534        5.03414
C         12.83204       10.25619        6.25492
C         13.34257       11.65829        5.90390
S         14.12389       12.37655        7.37468
C         14.75088       13.90319        6.72128
S         14.71939       14.32953        5.13681
N         15.30210       14.69936        7.72943
C         16.07417       15.85026        7.53659
C         16.38887       16.29377        8.78823
N         15.83344       15.47266        9.76661
C         15.19821       14.53586        9.12017
N         13.60069        7.21122        4.75854
H          9.36097       -6.49940        1.25684
H          8.84548       -5.72187        2.76587
H         10.56407       -5.75321        2.32639
H          8.36430       -4.25192        0.76151
H         10.07041       -4.27748        0.32526
H         10.64813       -3.14079        2.49116
H          8.94607       -3.14471        2.95048
H          8.40392       -1.72872        0.93242
H         10.11397       -1.68797        0.50615
H         10.63710       -0.53572        2.67786
H          8.94000       -0.63596        3.14610
H          8.32065        0.76032        1.12539
H         10.03069        0.93235        0.73583
H         10.42491        2.08056        2.93602
H          8.73243        1.83523        3.37347
H          8.03604        3.21218        1.35765
H          9.72983        3.56220        1.02238
H          8.29993        4.26325        3.65106
H          8.48184        5.38513        2.26470
H          9.66086        5.46490        5.13807
H          9.81151        6.79248        3.92774
H         12.18129        5.15263        4.58430
H          7.02940        8.59548        9.31394
H          6.16988        7.64621        8.07401
H          5.20810       10.37011        9.21867
H          4.52701        8.78028        9.61648
H          4.35163        9.42535        7.97269
H         11.29972       10.25928        4.71488
H         12.82766        9.55209        4.17908
H         13.67080        9.62665        6.59714
H         12.11932       10.30401        7.09261
H         12.52391       12.31814        5.58237
H         14.08893       11.64030        5.09679
H         16.30571       16.20256        6.53983
H         16.98421       17.16049        9.05800
H         14.61741       13.73276        9.56477
H         14.10066        6.49054        4.25089
H         14.14713        7.87310        5.29704
