56

C          1.36460        1.59772        0.65797
C          1.98167        0.31093        0.10641
C          3.42133        0.07872        0.58222
C          4.01899       -1.26529        0.14150
N          4.00185       -1.46644       -1.32076
C          3.06606       -2.29405       -1.84485
O          2.25884       -2.95536       -1.18728
C          3.00418       -2.38430       -3.39293
N          2.04437       -3.41319       -3.78259
C          2.35472       -4.74824       -3.94112
N          1.33210       -5.45080       -4.34119
N          0.32028       -4.53866       -4.40010
C          0.71111       -3.28928       -4.06029
N         -0.06471       -2.18031       -4.04822
C         -1.18615       -2.05074       -5.00903
C         -0.76752       -1.52541       -6.39248
C         -0.17322       -2.61131       -7.29899
S          0.51719       -1.96993       -8.84415
C          2.18286       -1.60631       -8.38070
S          2.83673       -1.85199       -6.88066
N          2.92161       -1.08723       -9.43875
C          2.49756       -0.84369      -10.75974
N          3.45547       -0.35570      -11.49152
C          4.56462       -0.26202      -10.65137
C          4.26856       -0.70033       -9.39580
C          0.17753       -1.14865       -3.10119
C         -0.24809        0.11417       -3.20973
C          4.87053       -0.60912       -2.12459
H          0.34282        1.74660        0.28226
H          1.95494        2.48156        0.37604
H          1.30868        1.57392        1.75536
H          1.97085        0.34847       -0.99685
H          1.36109       -0.55437        0.39095
H          3.45800        0.09642        1.68325
H          4.06297        0.91224        0.24992
H          3.45306       -2.09790        0.57525
H          5.06470       -1.34921        0.47380
H          3.96781       -2.66276       -3.83857
H          2.70070       -1.43104       -3.84541
H          3.34552       -5.15118       -3.75923
H         -0.61202       -4.84883       -4.65139
H         -1.89928       -1.36646       -4.53456
H         -1.71054       -3.01542       -5.09341
H         -0.04100       -0.71150       -6.26289
H         -1.65553       -1.08996       -6.87382
H         -0.93930       -3.33254       -7.62141
H          0.65167       -3.15426       -6.81559
H          1.48516       -1.05296      -11.09231
H          5.51204        0.11988      -11.01833
H          4.84376       -0.78817       -8.48414
H          0.69196       -1.50650       -2.20855
H         -0.77734        0.51236       -4.07387
H         -0.07497        0.79470       -2.37923
H          5.78275       -0.40136       -1.55234
H          4.39268        0.35255       -2.37083
H          5.17517       -1.09967       -3.05612
