89

O          3.26873       -0.60518        0.67948
C          3.59407       -0.42172       -0.50165
N          2.88037        0.33490       -1.38407
C          1.70623        1.10352       -1.17842
C          1.17123        1.74653       -2.30712
C          0.03892        2.54764       -2.18751
C         -0.57159        2.71666       -0.94136
C         -0.03733        2.07491        0.17732
C          1.09644        1.26556        0.07567
C          4.91228       -0.98325       -1.03110
C          6.11806       -0.14800       -0.52694
C          6.14272        0.24777        0.95654
C          6.92542        1.56672        1.23501
C          5.99586        2.68097        1.73541
C          4.97544        3.14843        0.69047
C          3.89286        4.07485        1.25151
C          2.98296        4.65068        0.16203
C          1.74780        5.36931        0.70965
C          0.87483        5.98489       -0.38783
C         -0.48211        6.48312        0.11506
C         -1.39005        7.01765       -0.99630
C         -2.73604        7.54495       -0.49030
C         -3.66715        8.02491       -1.60886
C         -4.98949        8.60018       -1.09364
C         -5.92818        9.02775       -2.23066
N         -7.16946        9.62617       -1.76232
C         -8.27394        8.93182       -1.31675
C         -9.20396        9.84725       -0.85686
C         -8.63996       11.14297       -1.02358
C         -7.38406       10.97561       -1.57905
C          8.05908        1.20118        2.22307
C          8.25835       -0.29378        2.03810
N          6.83570       -0.78394        1.89616
C          6.68269       -2.25973        1.62650
C          5.31210       -2.77677        2.09277
C          5.10552       -4.18812        1.66734
C          5.06887       -5.27020        2.45425
F          5.23193       -5.21143        3.77249
F          4.86080       -6.49946        2.02885
F          4.94012       -4.36548        0.32640
H          3.23607        0.36296       -2.33535
H          1.64834        1.61847       -3.28222
H         -0.36433        3.04312       -3.07083
H         -1.45429        3.34836       -0.84393
H         -0.51009        2.19965        1.15215
H          1.50133        0.75876        0.94629
H          4.94658       -0.99407       -2.12995
H          4.96836       -2.02974       -0.70638
H          6.11184        0.80713       -1.07132
H          7.06160       -0.63442       -0.82522
H          5.11336        0.31188        1.33099
H          7.38816        1.88755        0.28827
H          6.60585        3.53788        2.06294
H          5.46909        2.32055        2.63817
H          4.46895        2.28137        0.23386
H          5.51164        3.65315       -0.13217
H          4.35926        4.89766        1.81957
H          3.28286        3.50939        1.97753
H          2.64869        3.83599       -0.50244
H          3.56671        5.34063       -0.47226
H          2.05267        6.15170        1.42599
H          1.14659        4.64597        1.28744
H          0.71193        5.23289       -1.17818
H          1.41905        6.81538       -0.87025
H         -0.33020        7.26791        0.87632
H         -0.99697        5.65692        0.63775
H         -1.56387        6.21776       -1.73876
H         -0.86600        7.82153       -1.54235
H         -2.55836        8.37291        0.21772
H         -3.24425        6.75608        0.09193
H         -3.87248        7.18424       -2.29560
H         -3.14645        8.78781       -2.21402
H         -4.79656        9.47176       -0.44744
H         -5.50575        7.85663       -0.46500
H         -6.17920        8.16113       -2.86284
H         -5.42836        9.76106       -2.88129
H         -8.30734        7.84819       -1.37166
H        -10.18514        9.60850       -0.45917
H         -9.10483       12.09296       -0.78041
H         -6.63028       11.70013       -1.87063
H          7.75910        1.41503        3.26188
H          8.97832        1.76570        2.03099
H          8.73796       -0.81502        2.87543
H          8.78556       -0.54703        1.10795
H          6.39442       -0.61999        2.81223
H          7.49089       -2.76463        2.17229
H          6.84706       -2.42305        0.55557
H          4.49850       -2.15294        1.67874
H          5.24476       -2.72542        3.18971
