71

C          1.23619        0.33807       -0.42881
C          2.75067        0.11771       -0.38548
C          3.17488       -0.99426        0.58086
C          4.68758       -1.23445        0.61918
C          5.10792       -2.34618        1.58662
C          6.61746       -2.60742        1.60122
C          7.04164       -3.71206        2.57569
C          8.54734       -3.99167        2.55187
C          8.99469       -5.06555        3.55124
C         10.50265       -5.33752        3.47061
C         10.98840       -6.33935        4.50170
O         12.41468       -6.51606        4.29417
C         13.05477       -7.33770        5.23558
C         14.48727       -7.36162        4.80736
N         14.91851       -6.81818        3.65520
C         16.28430       -7.00212        3.57351
N         16.69920       -7.64547        4.64742
N         15.57365       -7.85907        5.40000
C         15.66259       -8.57803        6.66948
C         17.13003       -6.52334        2.45071
C         17.15890       -4.98872        2.33646
O         17.75199       -4.70581        1.08939
C         17.94807       -3.32539        0.84797
C         18.94012       -3.15171       -0.30820
C         20.47300       -3.26257        0.02510
C         21.09085       -4.57932        0.62366
C         21.06590       -5.84903       -0.28023
F         21.87363       -6.78340        0.29430
F         19.80295       -6.36126       -0.33438
F         22.40038       -4.29033        0.85768
F         20.50144       -4.85245        1.82673
F         21.15520       -3.00727       -1.12749
F         20.74736       -2.27133        0.92254
F         18.65142       -4.00961       -1.32776
F         18.77383       -1.87459       -0.77814
H          0.96506        1.14013       -1.12879
H          0.84403        0.61488        0.56124
H          0.70923       -0.57350       -0.74828
H          3.25279        1.05761       -0.09967
H          3.11707       -0.12346       -1.39783
H          2.66417       -1.93286        0.30147
H          2.81755       -0.74911        1.59674
H          5.20035       -0.29637        0.89607
H          5.04239       -1.48265       -0.39680
H          4.58009       -3.27904        1.32122
H          4.77118       -2.08933        2.60635
H          7.14802       -1.67329        1.85719
H          6.95017       -2.87308        0.58221
H          6.49373       -4.64058        2.33797
H          6.73585       -3.43363        3.59932
H          9.09571       -3.05603        2.75935
H          8.84436       -4.29681        1.53325
H          8.43829       -5.99974        3.36446
H          8.72757       -4.74715        4.57341
H         11.05690       -4.39505        3.61079
H         10.75749       -5.71235        2.46574
H         10.48625       -7.31736        4.39260
H         10.81998       -5.97330        5.53034
H         12.65130       -8.37222        5.24882
H         12.98039       -6.94453        6.27097
H         14.28322       -6.34922        3.00911
H         16.71881       -8.60715        6.95017
H         15.28139       -9.60018        6.55109
H         15.08721       -8.04578        7.43629
H         16.74376       -6.92777        1.50142
H         18.14562       -6.91477        2.58397
H         17.74133       -4.54966        3.16857
H         16.13220       -4.56787        2.38653
H         18.34411       -2.80099        1.73481
H         17.01026       -2.83208        0.53394
H         21.42237       -5.63327       -1.29915
