109

C         -0.58623       17.05977       -1.65402
C          0.93543       17.07851       -1.82236
C          1.65599       16.02453       -0.97377
C          3.17962       16.04374       -1.13352
C          3.90589       14.99523       -0.28433
C          5.42878       15.02261       -0.45220
C          6.16655       13.97355        0.38627
C          7.68819       14.01206        0.20857
C          8.43900       12.97500        1.05024
C          9.95987       13.02530        0.86807
C         10.71802       12.00306        1.72089
C         12.23927       12.05554        1.54013
C         12.99039       11.02525        2.38965
C         14.51334       11.06949        2.22108
C         15.23673       10.00173        3.05178
C         16.76076        9.94970        2.87038
C         17.51812       11.17549        3.39933
C         19.03902       11.00901        3.30958
C         19.82335       12.20218        3.86732
C         21.34397       11.99893        3.92274
N         21.98183       11.85232        2.59624
C         22.16480       13.08864        1.80020
C         23.67031       13.34870        1.60981
O         23.81102       14.46649        0.76736
C         25.18328       14.81218        0.51371
C         25.21513       15.97528       -0.45666
C         21.36754       12.98379        0.49556
C         21.83239       11.77321       -0.30361
N         22.09392       10.64439        0.59719
C         22.04710       10.67307        1.94485
N         22.05313        9.48249        2.58090
C         22.78825        9.12692        3.78367
C         23.26407        7.66759        3.52919
O         22.97401        7.14920        2.43944
N         23.94849        7.03745        4.50459
C         24.42178        5.65700        4.27442
C         23.57580        4.59029        4.98142
C         22.11765        4.51632        4.51299
C         21.32867        3.40516        5.20955
C         24.32467        7.65784        5.77025
H         -1.07102       17.82623       -2.27447
H         -0.87468       17.24777       -0.60888
H         -1.00819       16.08489       -1.94088
H          1.32253       18.07844       -1.56229
H          1.19082       16.92446       -2.88463
H          1.27318       15.02223       -1.23605
H          1.39793       16.17529        0.08960
H          3.55975       17.04793       -0.87458
H          3.43620       15.89126       -2.19693
H          3.52774       13.99022       -0.54245
H          3.65255       15.14742        0.77979
H          5.80510       16.02736       -0.18996
H          5.67931       14.87763       -1.51807
H          5.79316       12.96768        0.12474
H          5.91942       14.11805        1.45288
H          8.05774       15.02155        0.46218
H          7.93340       13.86224       -0.85786
H          8.07384       11.96407        0.79686
H          8.19425       13.12431        2.11670
H         10.32118       14.04070        1.10951
H         10.20437       12.86488       -0.19696
H         10.35797       10.98743        1.47948
H         10.47275       12.16318        2.78564
H         12.60115       13.06926        1.78784
H         12.48564       11.89937        0.47483
H         12.62788       10.01300        2.13808
H         12.73896       11.17745        3.45409
H         14.87450       12.07646        2.49282
H         14.76756       10.93283        1.15448
H         14.82263        9.01374        2.79131
H         15.00434       10.15000        4.12115
H         16.99654        9.80957        1.80000
H         17.14639        9.05235        3.38408
H         17.23290       11.35343        4.45094
H         17.21542       12.07972        2.84539
H         19.31438       10.83326        2.25486
H         19.33479       10.09361        3.85119
H         19.50002       12.40689        4.90148
H         19.58455       13.11655        3.29866
H         21.57834       11.12092        4.53424
H         21.83365       12.85680        4.40380
H         21.74896       13.90895        2.39912
H         24.16989       12.45740        1.17507
H         24.13181       13.52173        2.60278
H         25.70777       13.93054        0.09676
H         25.67731       15.07349        1.46847
H         24.73714       15.70717       -1.40823
H         26.25467       16.26131       -0.66488
H         24.69645       16.84828       -0.04002
H         21.50458       13.89299       -0.10091
H         20.30053       12.89752        0.74474
H         22.75921       12.00173       -0.85182
H         21.07522       11.47124       -1.04118
H         22.38284        9.76575        0.17859
H         22.04198        8.63290        1.98329
H         22.14524        9.15422        4.67863
H         23.64381        9.79846        3.95471
H         25.46555        5.61025        4.62083
H         24.41480        5.49521        3.18976
H         23.61039        4.73995        6.07461
H         24.07237        3.62247        4.80252
H         22.09489        4.36810        3.42165
H         21.62151        5.48449        4.69482
H         21.77121        2.41761        5.01420
H         20.28830        3.37596        4.85947
H         21.30824        3.54778        6.30019
H         23.67843        8.50780        6.01142
H         25.37127        8.00046        5.74975
H         24.21678        6.92546        6.58007
