94

C          0.27917       -1.21866       -0.82579
C          1.70776       -0.67069       -0.78515
C          2.64802       -1.35071       -1.78635
C          4.07557       -0.79333       -1.75481
C          5.01892       -1.49520       -2.73919
C          6.41878       -0.90617       -2.71664
O          7.23802       -1.63191       -3.65701
C          8.53285       -1.10613       -3.77371
N          9.18055       -1.77589       -4.89632
C          8.58140       -1.64726       -6.23304
O          7.93879       -2.85136       -6.59962
C          8.84577       -3.93367       -6.74361
N          9.91529       -3.79574       -5.72479
C          9.92920       -2.88877       -4.73786
N         10.67511       -3.12397       -3.63009
C         11.83611       -2.30150       -3.11658
C         11.56791       -1.88214       -1.63101
C         10.95458       -2.99900       -0.77299
C         12.80910       -1.29566       -0.93585
C         13.04928       -3.25726       -3.21867
O         13.07391       -3.82374       -4.53746
C         12.07852       -1.08047       -4.01193
C          9.42320       -4.06001       -8.15359
C         10.40476       -5.22590       -8.37400
C          9.82375       -6.60727       -8.04040
S         10.84433       -7.97848       -8.63621
C         10.21956       -8.18310      -10.32630
S          8.92683       -7.30684      -10.91303
N         10.89888       -9.11716      -11.02968
C         12.00318       -9.90876      -10.45499
C         11.57657      -11.17306       -9.69118
C         10.89675      -12.25684      -10.53618
C         10.60889      -13.53197       -9.73980
C         10.53265       -9.39509      -12.43577
C         11.08728       -8.38577      -13.44956
C         12.61383       -8.25169      -13.47845
C         13.09835       -7.29107      -14.56722
H         -0.36244       -0.72058       -0.08652
H          0.25737       -2.29760       -0.61131
H         -0.17845       -1.06973       -1.81529
H          2.11837       -0.78728        0.23222
H          1.69221        0.41483       -0.98135
H          2.23723       -1.24310       -2.80559
H          2.67395       -2.43607       -1.58476
H          4.47811       -0.88315       -0.73076
H          4.04720        0.28791       -1.97616
H          4.62055       -1.42142       -3.76374
H          5.08137       -2.56915       -2.50174
H          6.86483       -0.98223       -1.70641
H          6.40244        0.16461       -2.99757
H          9.13533       -1.28132       -2.86770
H          8.51234       -0.01859       -3.98100
H          9.37646       -1.37213       -6.94704
H          7.81168       -0.87121       -6.20109
H          8.25074       -4.82619       -6.48973
H         10.71335       -4.42517       -5.78124
H         10.86742       -4.11898       -3.53554
H         10.82282       -1.06991       -1.69390
H         11.63688       -3.85311       -0.64893
H         10.01084       -3.37242       -1.19088
H         10.74073       -2.61736        0.23365
H         13.56804       -2.06498       -0.73236
H         12.51960       -0.87158        0.03415
H         13.28379       -0.49056       -1.51127
H         12.96687       -4.05676       -2.46008
H         13.96882       -2.68839       -3.01680
H         13.92328       -4.27405       -4.66005
H         11.26608       -0.34707       -3.94890
H         12.21426       -1.37406       -5.06040
H         12.99700       -0.57547       -3.69195
H          9.91470       -3.11337       -8.42797
H          8.55927       -4.18372       -8.82373
H         11.34831       -5.06490       -7.82456
H         10.67605       -5.21938       -9.43849
H          8.83528       -6.73715       -8.51378
H          9.73229       -6.79087       -6.95858
H         12.59022       -9.25093       -9.79601
H         12.66391      -10.18039      -11.28909
H         10.92078      -10.89012       -8.85259
H         12.49237      -11.58667       -9.23526
H         11.53595      -12.50283      -11.40166
H          9.95242      -11.86799      -10.94967
H         11.53519      -13.97546       -9.34580
H         10.11796      -14.28949      -10.36500
H          9.94789      -13.32885       -8.88453
H          9.43606       -9.41563      -12.49630
H         10.90760      -10.40209      -12.66055
H         10.62823       -7.40323      -13.26319
H         10.72601       -8.70932      -14.44020
H         13.07329       -9.24315      -13.63506
H         12.97147       -7.89719      -12.49715
H         12.79854       -7.63731      -15.56708
H         14.19276       -7.19680      -14.56267
H         12.67630       -6.28492      -14.42680
