131

C         16.46052      -25.47944       -7.58604
C         16.12416      -24.94703       -6.19080
C         16.73743      -23.57286       -5.90144
C         16.41151      -23.03037       -4.50638
C         17.02431      -21.65485       -4.22625
C         16.71787      -21.11036       -2.82727
C         17.31165      -19.72144       -2.57351
C         17.05776      -19.17808       -1.16346
C         17.60497      -17.76214       -0.95730
C         17.43417      -17.22132        0.46611
C         17.93998      -15.78383        0.62612
C         17.83123      -15.23373        2.05205
C         18.29707      -13.77888        2.17026
C         18.24848      -13.21842        3.59545
C         18.64308      -11.73990        3.67313
C         18.66385      -11.17820        5.09862
C         19.02519       -9.68940        5.14787
C         19.05226       -9.09037        6.55708
N         20.00681       -9.74462        7.47690
C         21.29555      -10.03011        7.24437
N         21.92199      -11.09843        7.76267
C         21.32491      -12.18321        8.54173
C         21.60257      -12.08158       10.05027
C         21.05962      -10.80822       10.71832
C         19.53056      -10.75333       10.88848
C         18.98948      -11.65863       12.00285
C         17.47961      -11.53064       12.22846
C         16.97131      -12.37134       13.40482
C         15.48358      -12.17242       13.71150
C         14.99851      -12.96977       14.92704
C         13.53189      -12.71234       15.28682
C         13.06117      -13.47263       16.53132
C         11.60719      -13.18051       16.91528
C         11.14072      -13.91884       18.17435
C          9.69171      -13.60990       18.56442
C          9.22078      -14.34073       19.82689
C          7.76912      -14.02913       20.20111
C         23.37359      -10.98679        7.55900
C         23.46237       -9.93496        6.44196
N         22.12459       -9.29169        6.45340
C         22.03286       -7.84428        6.37134
C         22.21938       -7.18382        7.74924
O         22.54642       -7.80283        8.74370
O         21.96650       -5.87572        7.66530
C         22.14907       -5.07587        8.88674
C         23.57073       -4.54358        8.98862
C         23.73615       -3.63295       10.21007
H         16.00714      -26.46465       -7.76293
H         17.54734      -25.58516       -7.72205
H         16.09553      -24.80066       -8.37144
H         16.46984      -25.66589       -5.42844
H         15.02880      -24.88746       -6.07266
H         16.39010      -22.85254       -6.66344
H         17.83376      -23.63150       -6.02292
H         16.76243      -23.74889       -3.74456
H         15.31549      -22.97351       -4.38343
H         16.66396      -20.93583       -4.98326
H         18.11897      -21.70927       -4.36248
H         17.09939      -21.81705       -2.06909
H         15.62410      -21.07260       -2.67996
H         16.90207      -19.01264       -3.31501
H         18.40011      -19.75142       -2.75839
H         17.51085      -19.85989       -0.42223
H         15.97323      -19.18485       -0.95590
H         17.11066      -17.07690       -1.66841
H         18.67709      -17.74537       -1.22252
H         17.96660      -17.88058        1.17423
H         16.36881      -17.26804        0.75287
H         17.37938      -15.12547       -0.06069
H         18.99329      -15.73084        0.29796
H         18.42405      -15.86780        2.73493
H         16.78582      -15.31181        2.39851
H         17.67597      -13.14709        1.51141
H         19.32758      -13.69315        1.78245
H         18.91493      -13.81333        4.24551
H         17.23203      -13.34636        4.00694
H         17.94635      -11.14538        3.05769
H         19.63927      -11.60268        3.21629
H         19.38276      -11.76165        5.70062
H         17.67746      -11.33051        5.57099
H         18.28956       -9.10714        4.57007
H         19.99494       -9.52405        4.64969
H         18.07277       -9.21212        7.03901
H         19.24121       -8.00692        6.52501
H         19.59117      -10.25725        8.24914
H         21.72816      -13.12827        8.14664
H         20.24618      -12.19918        8.32681
H         22.68897      -12.15062       10.21519
H         21.17657      -12.98212       10.51862
H         21.41550       -9.92404       10.16454
H         21.51740      -10.72180       11.71574
H         19.00973      -11.02071        9.94520
H         19.23629       -9.71273       11.09969
H         19.51721      -11.40712       12.93897
H         19.23769      -12.71297       11.79232
H         16.93944      -11.81701       11.30845
H         17.23068      -10.46984       12.40798
H         17.55955      -12.11941       14.30466
H         17.16840      -13.43945       13.20672
H         14.88306      -12.44790       12.82667
H         15.29122      -11.09864       13.88370
H         15.63226      -12.72146       15.79681
H         15.14940      -14.04809       14.74385
H         12.88998      -12.98005       14.42897
H         13.38339      -11.62967       15.44651
H         13.71895      -13.21848       17.38120
H         13.18681      -14.55742       16.36808
H         10.94566      -13.44431       16.07127
H         11.48336      -12.09333       17.06524
H         11.80798      -13.66081       19.01586
H         11.25456      -15.00699       18.02353
H          9.02378      -13.86927       17.72364
H          9.57839      -12.52093       18.71230
H          9.88406      -14.07546       20.66796
H          9.33932      -15.42821       19.68196
H          7.62602      -12.95344       20.38419
H          7.46282      -14.56337       21.11099
H          7.07776      -14.32050       19.39610
H         23.78531      -11.95787        7.25600
H         23.86816      -10.65907        8.48601
H         23.64741      -10.38332        5.45533
H         24.23869       -9.18908        6.64548
H         21.08452       -7.51793        5.92680
H         22.81753       -7.48666        5.69143
H         21.88247       -5.70063        9.74967
H         21.41771       -4.26500        8.77754
H         23.81221       -3.99162        8.06732
H         24.27069       -5.39095        9.05378
H         23.05363       -2.77216       10.16753
H         24.75923       -3.24093       10.26262
H         23.53796       -4.17329       11.14653
