96

N          4.81900        2.41095        5.32396
C          4.41422        1.07270        4.83862
C          5.02166        0.80555        3.45759
C          6.53973        0.57875        3.52840
C          7.30025        0.83374        2.22162
C          7.26107        2.29092        1.70697
C          7.41870        3.47585        2.68196
C          6.71279        4.71252        2.06916
N          6.90810        5.98792        2.73396
C          8.32135        6.28395        2.91431
C          9.04897        5.16321        3.65799
N          8.89282        3.83596        2.93936
C          9.68499        2.74940        3.65188
C         11.18216        2.84066        3.37487
C         11.99207        1.70810        4.04895
C         11.66938        0.33034        3.43818
C         12.34039       -0.86619        4.14104
C         11.85843       -2.18168        3.59749
C         12.56515       -3.11398        2.93139
C         14.03181       -3.01334        2.60676
C         11.90776       -4.38341        2.45620
C         13.48775        2.04115        3.96550
C          8.53066        7.62654        3.61968
O          9.92471        7.84216        3.69527
C         10.29512        9.14793        4.17319
C         11.81070        9.24804        4.12886
C         12.35725       10.60238        4.59361
C         13.88749       10.65576        4.52048
C         14.50008       11.98123        4.98153
C         16.03032       11.98378        4.90181
C         16.68254       13.28743        5.37152
C         18.21177       13.25777        5.28999
C         18.88637       14.54598        5.77066
C         20.41337       14.48820        5.68900
H          4.74767        2.45208        6.34099
H          4.15800        3.10862        4.97757
H          3.31877        0.94788        4.79695
H          4.78914        0.32453        5.55376
H          4.77848        1.66528        2.80935
H          4.53204       -0.06573        2.99592
H          6.72891       -0.45836        3.84477
H          6.94752        1.21553        4.33086
H          6.87784        0.20577        1.42071
H          8.33844        0.48271        2.32869
H          6.27876        2.45183        1.23594
H          7.98011        2.40968        0.87726
H          6.99442        3.25495        3.67485
H          5.63906        4.48384        2.03248
H          7.04552        4.81951        1.02023
H          6.40703        6.02646        3.62428
H          8.76977        6.38072        1.90697
H          8.62547        5.02109        4.66316
H         10.12116        5.37180        3.74401
H          9.32387        3.94793        2.00813
H          9.28107        1.79492        3.30879
H          9.45591        2.85403        4.72106
H         11.57813        3.80605        3.72556
H         11.35776        2.79929        2.28388
H         11.70783        1.68503        5.11794
H         11.96224        0.33088        2.37331
H         10.58010        0.15354        3.45491
H         12.10839       -0.81091        5.22058
H         13.43241       -0.78721        4.05667
H         10.79485       -2.38924        3.76840
H         14.49905       -2.08421        2.95242
H         14.19191       -3.09034        1.51963
H         14.58150       -3.85522        3.05654
H         10.84277       -4.41881        2.71983
H         12.40010       -5.26714        2.89316
H         11.99916       -4.48899        1.36318
H         13.82973        2.05314        2.91897
H         14.09380        1.30410        4.50582
H         13.70272        3.02675        4.40202
H          8.06953        7.61013        4.63134
H          8.02129        8.41412        3.03417
H          9.91438        9.28882        5.20319
H          9.82601        9.91849        3.53218
H         12.14161        9.05113        3.09613
H         12.23459        8.44523        4.75450
H         12.03076       10.80262        5.62861
H         11.93038       11.40959        3.97412
H         14.20507       10.45225        3.48272
H         14.30494        9.83491        5.13004
H         14.18640       12.19040        6.01913
H         14.09788       12.80678        4.36895
H         16.33898       11.77835        3.86155
H         16.42432       11.14587        5.50388
H         16.37595       13.49565        6.41166
H         16.29904       14.12841        4.76770
H         18.51718       13.05560        4.24805
H         18.59061       12.40779        5.88511
H         18.57932       14.75004        6.81025
H         18.51547       15.39535        5.17273
H         20.81322       13.66814        6.30405
H         20.87318       15.42187        6.04059
H         20.75032       14.31985        4.65524
