56

C          1.52286        1.02561        0.68566
C          2.98231        0.57649        0.82549
C          3.07627       -0.72190        1.60916
O          4.46371       -1.24507        1.60916
C          5.26518       -0.84891        2.57775
O          5.00721       -0.11140        3.51736
C          6.67603       -1.42639        2.41479
N          7.37071       -1.22391        3.72907
C          7.17998       -2.41780        4.63664
C          7.39481       -2.09298        6.11877
O          6.66172       -3.09129        6.78378
C          7.05301       -3.35029        8.14129
C          6.44001       -4.67115        8.55351
O          7.08216       -5.70387        7.82821
C          6.46354       -6.97702        7.99042
C          7.19268       -7.95513        7.07955
O          6.52908       -9.20135        7.17431
C          7.13368      -10.20399        6.37141
C          8.81039       -0.78001        3.61380
C          8.91937        0.67408        3.15267
C         10.34212        1.22516        3.31656
C         10.75974        1.33998        4.78377
O         10.07740        0.95491        5.70829
O         11.96824        1.89986        5.02148
H          1.46425        1.96299        0.11943
H          1.05681        1.19969        1.66565
H          0.92069        0.27665        0.15234
H          3.56969        1.35581        1.33520
H          3.42829        0.42560       -0.16950
H          2.50791       -1.53097        1.13495
H          2.75887       -0.60533        2.65350
H          7.20270       -0.87242        1.62706
H          6.66778       -2.48926        2.14980
H          6.80966       -0.44994        4.15973
H          7.84283       -3.21913        4.28574
H          6.13826       -2.74433        4.52088
H          7.01981       -1.07257        6.35247
H          8.46413       -2.12230        6.39683
H          6.69916       -2.54130        8.80518
H          8.15404       -3.41031        8.20826
H          5.35274       -4.65937        8.34207
H          6.56841       -4.80294        9.64616
H          5.39471       -6.93040        7.70768
H          6.52168       -7.31668        9.04132
H          8.25373       -8.04252        7.38647
H          7.17618       -7.57325        6.03820
H          6.55086      -11.12167        6.51102
H          8.18065      -10.39002        6.67356
H          7.11969       -9.92740        5.30019
H          9.31577       -1.48282        2.93653
H          9.24169       -0.87410        4.61620
H          8.23682        1.29185        3.75747
H          8.61766        0.78513        2.10095
H         10.40085        2.22241        2.85346
H         11.07908        0.59921        2.78563
H         12.39944        2.18348        4.19546
