36

N          6.18503       -1.68952        2.56864
C          5.52015       -0.94803        1.50502
C          5.63248        0.55971        1.82830
P          5.03319        1.63871        0.51674
N          3.32456        1.34012        0.36843
O          2.73653        1.86241        1.56253
O          2.91418        2.14258       -0.74619
C          5.39425        3.40541        0.74264
C          6.91634        3.54368        0.89890
O          7.49060        2.56981        0.03581
Si         9.17968        2.37553       -0.22797
C          9.24687        1.09970       -1.59413
C          9.89625        4.02566       -0.75083
C          9.95602        1.75175        1.36284
H          6.43534       -2.62841        2.26083
H          5.58800       -1.79113        3.38987
H          4.45911       -1.21271        1.34138
H          6.05084       -1.15434        0.56321
H          6.68642        0.82375        1.99926
H          5.06677        0.82255        2.73625
H          5.46232        1.19008       -0.74310
H          2.00106        1.24717        1.74487
H          2.28776        1.56610       -1.22406
H          4.82281        3.77898        1.60415
H          5.02362        3.90349       -0.16555
H          7.20712        3.37021        1.95035
H          7.22551        4.56689        0.62889
H          8.74903        1.45910       -2.50530
H          8.78027        0.15087       -1.29411
H         10.29212        0.87887       -1.85481
H          9.41129        4.40868       -1.65951
H         10.96769        3.91104       -0.97236
H          9.81354        4.79137        0.03337
H          9.53336        0.78502        1.67319
H          9.83976        2.46125        2.19467
H         11.03654        1.60205        1.22077
