51

C          6.07565        0.12829        1.87661
C          4.90229        0.10036        0.92230
O          5.34037       -0.55874       -0.29894
C          4.33898       -0.66818       -1.25629
N          4.71156       -1.82178       -2.14110
N          4.91753       -1.44792       -3.40273
C          5.33810       -2.35825       -4.28730
C          5.58787       -1.85237       -5.67438
C          6.95368       -1.13025       -5.77568
C          7.20688       -0.54683       -7.16959
C          8.51041        0.25828       -7.24731
C          8.74470        0.89042       -8.62155
C          5.57648       -3.69172       -3.88746
C          5.31854       -4.04902       -2.57937
C          4.86824       -3.08203       -1.66845
C          4.59018       -3.44869       -0.22192
O          3.37661       -2.94399        0.30895
C          2.17556       -3.49488       -0.28074
O          2.15303       -4.87900       -0.32593
C          2.05442       -5.52765        0.96323
C          2.19644       -7.02115        0.73879
O          3.48320       -7.35333        0.20397
H          5.78301        0.63630        2.80521
H          6.92300        0.67353        1.44170
H          6.40508       -0.88725        2.13384
H          4.56723        1.12191        0.67457
H          4.04780       -0.46143        1.33565
H          4.28511        0.19094       -1.94229
H          3.35417       -0.88301       -0.81157
H          4.78551       -1.14916       -5.94042
H          5.54795       -2.69229       -6.38321
H          7.76126       -1.83164       -5.50614
H          6.97667       -0.32366       -5.02471
H          6.35984        0.10275       -7.45016
H          7.22811       -1.35995       -7.91538
H          9.35960       -0.39654       -6.99029
H          8.49141        1.04781       -6.47750
H          8.80464        0.12746       -9.41096
H          9.68301        1.46023       -8.63982
H          7.93194        1.58157       -8.88800
H          5.93974       -4.42156       -4.61187
H          5.44983       -5.07199       -2.22611
H          5.39146       -3.02926        0.40421
H          4.62975       -4.54811       -0.15613
H          2.06992       -3.15943       -1.32760
H          1.37511       -3.06650        0.34513
H          1.07774       -5.29408        1.42326
H          2.85549       -5.16758        1.62834
H          1.38892       -7.38542        0.08395
H          2.09771       -7.53101        1.70925
H          3.38842       -7.44268       -0.75487
