65

N          2.28062        0.89012       -3.79537
C          2.47729        1.27184       -2.37827
C          2.99402        0.09169       -1.54671
N          4.44515       -0.13907       -1.55779
C          5.17021       -0.53853       -2.62327
N          4.62437       -0.60177       -3.84508
N          6.47070       -0.88740       -2.41703
C          7.23677       -0.34464       -1.28692
C          6.86765       -0.88247        0.10651
O          5.83924       -1.56730        0.26511
N          7.65962       -0.49110        1.13082
C          7.21906       -0.76811        2.50960
C          6.58182        0.44929        3.19487
C          5.32239        0.98621        2.50184
C          4.69979        2.17314        3.24127
C          8.84483        0.34983        0.94773
C          7.20659       -1.62745       -3.45882
C          6.76660       -3.09116       -3.59882
C          7.55065       -3.85647       -4.68147
C          9.08347       -3.78337       -4.55629
C          9.62007       -4.26677       -3.19977
C         10.99254       -3.67941       -2.88420
O         11.37826       -3.95048       -1.51069
C         10.81270       -3.16365       -0.56378
O         10.05067       -2.23516       -0.81107
C         11.24446       -3.59986        0.78583
C         10.68961       -3.09301        1.89171
H          2.19587        1.71964       -4.38432
H          1.40786        0.37015       -3.90562
H          1.54637        1.63484       -1.91274
H          3.20347        2.09533       -2.33718
H          2.45598       -0.82882       -1.84178
H          2.74790        0.27518       -0.49332
H          4.80482       -0.59830       -0.69403
H          3.68950       -0.13474       -4.00116
H          5.23721       -0.70884       -4.64432
H          7.12382        0.75406       -1.26605
H          8.29339       -0.55852       -1.48555
H          8.09774       -1.10657        3.07863
H          6.50719       -1.59990        2.45613
H          7.32432        1.25998        3.29129
H          6.33572        0.14714        4.22589
H          4.58651        0.17096        2.40794
H          5.57220        1.29196        1.47069
H          4.39592        1.89359        4.26022
H          3.80709        2.54784        2.72210
H          5.40872        3.00975        3.32660
H          9.53087       -0.09824        0.21748
H          9.37280        0.41103        1.90546
H          8.58551        1.37632        0.64349
H          8.26210       -1.58189       -3.16797
H          7.14853       -1.09602       -4.42784
H          5.69368       -3.14344       -3.83516
H          6.88007       -3.57178       -2.61575
H          7.26249       -3.48020       -5.67675
H          7.22616       -4.90826       -4.65348
H          9.41478       -2.74486       -4.72878
H          9.53448       -4.36755       -5.37200
H          9.66261       -5.36537       -3.16749
H          8.93977       -3.95653       -2.39435
H         10.99334       -2.59022       -3.03821
H         11.79128       -4.12908       -3.48681
H         12.01571       -4.37032        0.82337
H          9.90312       -2.34141        1.81820
H         10.99314       -3.42023        2.88509
