66

C          7.42901        4.06920        3.74864
C          7.29480        3.91897        2.23176
C          5.89745        4.29878        1.72219
C          5.75744        4.29499        0.20998
O          6.03601        2.96658       -0.29017
C          5.92903        2.83635       -1.67433
N          6.92419        3.59636       -2.45660
C          8.11822        3.15788       -2.91362
N          8.59742        3.68241       -4.05590
C         10.02180        3.64215       -4.46525
C         10.62539        5.04456       -4.42241
O         11.88045        4.98535       -5.03962
C         12.60669        6.22246       -4.95068
C         13.94468        6.05377       -5.65095
C         14.79376        7.32646       -5.58811
O         10.73270        2.80757       -3.57957
C          9.94174        1.70385       -3.17557
N          8.82570        2.16299       -2.33555
C          8.99390        2.07180       -0.86349
C         10.07097        3.02128       -0.34715
O          9.67568        4.34032       -0.67394
C         10.65675        5.32531       -0.31041
C         10.10494        6.70863       -0.61820
C          8.88803        7.09347        0.22896
C          8.27655        8.44932       -0.13465
C          7.04220        8.78867        0.70398
H          8.43005        3.77736        4.09337
H          6.70089        3.43940        4.27971
H          7.25958        5.10902        4.06435
H          7.51166        2.87729        1.94638
H          8.04804        4.54380        1.72442
H          5.64379        5.31660        2.06331
H          5.13979        3.62854        2.15922
H          6.47499        5.00623       -0.23812
H          4.73548        4.58381       -0.09816
H          4.94521        3.18271       -2.03808
H          6.05020        1.77029       -1.90524
H          6.64806        4.51905       -2.77583
H          7.95499        4.17865       -4.66622
H         10.06248        3.24398       -5.49719
H         10.68746        5.36349       -3.36390
H          9.94105        5.74500       -4.94997
H         12.74859        6.48609       -3.88378
H         12.01481        7.03321       -5.41957
H         13.76043        5.76875       -6.69809
H         14.48044        5.21277       -5.18505
H         14.28911        8.17478       -6.07311
H         15.75317        7.17865       -6.09940
H         15.01377        7.61678       -4.55043
H         10.58223        1.04230       -2.58472
H          9.53603        1.15776       -4.04428
H          9.24898        1.03123       -0.62432
H          8.03740        2.30512       -0.38458
H         11.06392        2.79331       -0.78107
H         10.14626        2.88330        0.74904
H         11.59067        5.13356       -0.87226
H         10.88954        5.22984        0.76749
H          9.84782        6.75956       -1.69074
H         10.91811        7.43682       -0.46552
H          9.17488        7.09434        1.29500
H          8.11912        6.31137        0.12643
H          8.00913        8.45258       -1.20581
H          9.03543        9.24000       -0.01400
H          6.25380        8.02956        0.58069
H          6.61390        9.75880        0.41990
H          7.28760        8.83583        1.77504
