103

C          0.51186        0.29289       -0.18463
C          2.03907        0.18780       -0.18060
C          2.60200       -0.43982        1.09920
C          4.12990       -0.54973        1.11548
C          4.68643       -1.17259        2.39967
C          6.21424       -1.28376        2.42369
C          6.76323       -1.89983        3.71450
C          8.29093       -2.00977        3.74748
C          8.83498       -2.61859        5.04391
C         10.36290       -2.72216        5.08322
C         10.90811       -3.31930        6.38493
C         12.43748       -3.40183        6.42575
C         12.99239       -4.01265        7.71676
C         14.52338       -4.06531        7.75635
C         15.08734       -4.71662        9.02363
C         16.61893       -4.71692        9.07835
C         17.18901       -5.44288       10.30206
C         18.72009       -5.41821       10.36378
C         19.29984       -6.26309       11.50543
C         20.83373       -6.25037       11.54002
C         21.46782       -7.11040       12.63748
N         21.06830       -8.57743       12.43713
C         22.23056       -9.34402       11.79381
C         23.31492       -8.28005       11.59259
C         23.00887       -7.16410       12.62392
C         23.58559       -7.37216       14.04014
C         25.10298       -7.56537       14.10644
C         25.63708       -7.60036       15.54254
C         27.14432       -7.86023       15.62382
C         27.68488       -7.88471       17.05795
C         29.18608       -8.17301       17.13049
C         22.62221      -10.49649       12.73295
O         21.42456      -10.97031       13.32523
C         21.61604      -12.08111       14.23413
C         20.27984      -12.42725       14.85509
H          0.14016        0.74803       -1.11318
H          0.15142        0.90770        0.65378
H          0.04309       -0.69822       -0.09031
H          2.47775        1.19125       -0.31508
H          2.37042       -0.40392       -1.05093
H          2.16255       -1.44418        1.23478
H          2.26962        0.15232        1.97047
H          4.56907        0.45422        0.97728
H          4.46249       -1.14498        0.24663
H          4.24644       -2.17619        2.53771
H          4.35163       -0.57685        3.26735
H          6.65508       -0.28102        2.28214
H          6.55073       -1.88420        1.55995
H          6.32283       -2.90292        3.85500
H          6.42302       -1.29973        4.57702
H          8.73137       -1.00724        3.60338
H          8.63251       -2.61387        2.88834
H          8.39718       -3.62238        5.18715
H          8.48911       -2.01535        5.90194
H         10.79919       -1.71871        4.93315
H         10.70999       -3.33082        4.22955
H         10.48309       -4.32833        6.52979
H         10.55207       -2.71757        7.23974
H         12.85902       -2.38991        6.29161
H         12.79362       -3.99178        5.56272
H         12.58726       -5.03249        7.84142
H         12.62503       -3.43487        8.58312
H         14.92439       -3.04080        7.66237
H         14.89215       -4.61443        6.87195
H         14.71874       -5.75541        9.09296
H         14.69049       -4.19584        9.91254
H         16.98504       -3.67562        9.06497
H         17.01660       -5.18803        8.16217
H         16.84055       -6.49125       10.29275
H         16.77711       -4.99552       11.22316
H         19.07100       -4.37775       10.46922
H         19.13062       -5.78052        9.40508
H         18.91042       -7.29497       11.38380
H         18.90507       -5.91138       12.47370
H         21.18425       -5.22074       11.70931
H         21.23448       -6.54406       10.55441
H         21.07692       -6.81269       13.62152
H         20.22319       -8.62326       11.85454
H         20.83666       -9.08990       13.30864
H         21.85070       -9.75458       10.85075
H         23.26820       -7.87805       10.57248
H         24.31684       -8.70738       11.72029
H         23.39280       -6.20829       12.23808
H         23.08965       -8.22067       14.54585
H         23.31213       -6.48454       14.63448
H         25.60071       -6.75486       13.54668
H         25.39169       -8.50202       13.59870
H         25.10142       -8.38058       16.11254
H         25.39928       -6.64575       16.04256
H         27.68068       -7.08793       15.04517
H         27.37622       -8.82112       15.13091
H         27.13433       -8.64293       17.64028
H         27.46981       -6.91749       17.54234
H         29.42789       -9.15001       16.68646
H         29.54200       -8.18445       18.16922
H         29.76673       -7.41135       16.58966
H         23.33278      -10.15803       13.50966
H         23.12513      -11.27847       12.13695
H         22.35723      -11.79085       15.00024
H         22.02840      -12.93208       13.66523
H         19.88176      -11.58719       15.43976
H         20.39734      -13.28282       15.53296
H         19.54691      -12.70270       14.08570
