116

C         13.51638       21.81310        2.81596
C         13.25404       20.86349        3.98819
C         14.02685       19.54343        3.88657
C         13.75909       18.57866        5.04696
C         14.54129       17.26453        4.94723
C         14.25439       16.28585        6.09154
C         15.04977       14.97925        5.99774
C         14.74337       13.98686        7.12500
C         15.57832       12.70343        7.05991
C         15.24400       11.69303        8.16303
C         16.13042       10.44261        8.14043
C         15.73322        9.38919        9.18056
C         16.62251        8.14093        9.15781
C         16.15959        7.03923       10.11718
C         16.99682        5.75915       10.02112
C         16.53455        4.65227       10.97764
C         17.22586        3.29338       10.77704
C         18.76781        3.31194       10.82873
P         19.45872        3.90878       12.39582
C         18.90156        2.72824       13.74751
O         19.32057        1.59528       13.74521
O         18.05635        3.32827       14.57267
C         17.49275        2.50647       15.68430
C         16.26261        1.75416       15.22415
C         21.27290        3.97710       12.39952
C         21.86589        4.78514       11.22666
C         21.36407        6.23063       11.11948
C         22.07597        7.03057       10.02394
C         21.58106        8.47569        9.89692
C         22.32914        9.26484        8.81746
C         21.93274       10.74198        8.72489
C         22.68943       11.48832        7.62065
C         22.37236       12.98446        7.53634
C         23.11674       13.69075        6.39787
C         22.82510       15.19081        6.29527
C         23.55483       15.87392        5.13359
C         23.27222       17.37524        5.02394
C         23.99160       18.05492        3.85430
C         23.70941       19.55785        3.75059
C         24.42165       20.23265        2.57568
H         12.95061       22.74929        2.91981
H         13.22688       21.35515        1.85821
H         14.58254       22.07617        2.74522
H         12.17403       20.64723        4.05197
H         13.51657       21.36535        4.93502
H         15.10884       19.75935        3.83271
H         13.77275       19.04623        2.93352
H         12.67816       18.35695        5.09347
H         14.00453       19.07786        6.00106
H         15.62292       17.48616        4.91913
H         14.31004       16.77551        3.98441
H         13.17445       16.05565        6.11078
H         14.47385       16.77706        7.05601
H         16.12978       15.21058        5.99917
H         14.84723       14.49797        5.02460
H         13.67032       13.72707        7.09933
H         14.90985       14.47867        8.09966
H         16.65011       12.96440        7.11474
H         15.43586       12.22421        6.07513
H         14.18601       11.39095        8.07009
H         15.33098       12.18366        9.14839
H         17.18303       10.73816        8.29769
H         16.09230        9.98730        7.13512
H         14.68559        9.08808        9.00577
H         15.75320        9.83814       10.18893
H         17.66265        8.42624        9.39850
H         16.65076        7.73619        8.13106
H         15.10501        6.79258        9.90612
H         16.17858        7.41719       11.15449
H         18.05567        6.01864       10.20771
H         16.96179        5.37980        8.98460
H         15.45354        4.49041       10.84548
H         16.64311        4.99029       12.02408
H         16.96195        2.89095        9.78691
H         16.84467        2.56452       11.50922
H         19.19557        3.95352       10.04347
H         19.18953        2.30305       10.69403
H         18.94012        5.18827       12.68966
H         17.26567        3.26086       16.44522
H         18.28957        1.84171       16.03923
H         15.50277        2.43805       14.82457
H         15.82613        1.23605       16.08938
H         16.50699        0.99581       14.46986
H         21.61208        2.92925       12.39706
H         21.55310        4.41054       13.37320
H         21.68994        4.24829       10.28112
H         22.95747        4.78229       11.37022
H         21.49339        6.73951       12.09080
H         20.27717        6.24647       10.91161
H         21.95371        6.51330        9.05653
H         23.15990        7.03404       10.22994
H         21.69339        8.98651       10.86918
H         20.49883        8.47862        9.67446
H         22.16800        8.78199        7.83776
H         23.41402        9.19692        9.01021
H         22.12116       11.23212        9.69622
H         20.84568       10.82550        8.54846
H         22.46796       11.01491        6.64795
H         23.77496       11.35813        7.77627
H         22.62491       13.46774        8.49655
H         21.28481       13.12409        7.40439
H         22.85794       13.20437        5.44075
H         24.20325       13.53994        6.52603
H         23.10324       15.68423        7.24323
H         21.73724       15.34511        6.18327
H         23.27278       15.37967        4.18709
H         24.64223       15.71458        5.24250
H         23.56223       17.87064        5.96743
H         22.18396       17.53466        4.92324
H         23.69905       17.56310        2.90952
H         25.08018       17.89454        3.95115
H         24.00785       20.04756        4.69314
H         22.62108       19.71585        3.66138
H         25.51382       20.12409        2.65430
H         24.19824       21.30758        2.53195
H         24.11580       19.79090        1.61544
