81

C         10.08923        5.02158       -4.78998
C          9.84079        4.11901       -3.57974
C         10.46183        2.72708       -3.73130
C         10.21250        1.80412       -2.53493
C         10.85940        0.42397       -2.68671
C         10.61522       -0.50904       -1.49657
C         11.29548       -1.87355       -1.64651
C         11.06351       -2.81467       -0.46001
C         11.78317       -4.15950       -0.60634
C         11.56943       -5.10561        0.57989
C         12.32772       -6.43022        0.43760
C         12.12915       -7.36771        1.63455
C         12.79143       -8.75320        1.49402
P         14.60338       -8.72027        1.34152
C         15.36206       -7.69268        2.66856
C         15.01345       -8.30016        4.02857
O         14.64520       -9.45791        4.15527
O         15.17758       -7.40672        5.00362
C         14.94606       -7.84633        6.39363
C         16.27180       -7.98336        7.11223
C         16.88234       -7.51359        2.47609
C         15.37292      -10.37747        1.26382
C         15.03291      -10.90926       -0.13584
O         14.26523      -10.21534       -0.82729
N         15.57783      -12.07451       -0.54318
C         15.33285      -12.54228       -1.92429
C         14.35232      -13.71652       -2.01932
C         12.91472      -13.38379       -1.60696
C         11.96917      -14.57684       -1.75985
C         16.49802      -12.87273        0.26226
H          9.63940        6.01454       -4.65289
H          9.66142        4.58596       -5.70520
H         11.16593        5.16526       -4.96503
H          8.75542        4.01623       -3.41175
H         10.24370        4.59850       -2.67163
H         11.54980        2.83191       -3.89058
H         10.06763        2.25162       -4.64692
H          9.12493        1.68473       -2.38612
H         10.59268        2.28579       -1.61678
H         11.94691        0.54849       -2.83338
H         10.48348       -0.05508       -3.60784
H          9.52910       -0.65342       -1.36130
H         10.97397       -0.02288       -0.57229
H         12.38099       -1.72277       -1.78308
H         10.93898       -2.35926       -2.57166
H          9.98071       -2.98968       -0.33660
H         11.39940       -2.32078        0.46866
H         12.86494       -3.97705       -0.73569
H         11.44674       -4.65560       -1.53316
H         10.49233       -5.31522        0.69558
H         11.88332       -4.60216        1.51113
H         13.40124       -6.20393        0.29879
H         12.00780       -6.94365       -0.48475
H         11.05317       -7.55608        1.77402
H         12.46218       -6.87682        2.56361
H         12.44625       -9.27846        0.59214
H         12.58246       -9.39005        2.36704
H         14.97949       -8.04478        0.16588
H         14.88059       -6.70416        2.58606
H         14.38244       -8.78626        6.36531
H         14.32471       -7.05158        6.82361
H         16.88747       -8.77917        6.67266
H         16.08552       -8.24287        8.16337
H         16.83512       -7.04172        7.09028
H         17.42690       -8.45704        2.61240
H         17.25725       -6.79785        3.21750
H         17.11153       -7.11565        1.47856
H         14.95441      -10.98215        2.08103
H         16.45266      -10.28265        1.45033
H         16.31099      -12.82799       -2.34155
H         14.95560      -11.68192       -2.49075
H         14.72384      -14.57166       -1.42883
H         14.36488      -14.05552       -3.06806
H         12.55329      -12.53743       -2.21264
H         12.90117      -13.03654       -0.56026
H         11.93158      -14.92406       -2.80241
H         10.94567      -14.31572       -1.45999
H         12.29137      -15.42604       -1.13934
H         16.38311      -12.66147        1.32988
H         17.54357      -12.69035       -0.03307
H         16.28036      -13.93724        0.11103
