41

C          0.48133        0.21575       -1.05360
C          2.00953        0.09417       -1.06288
C          2.48265       -0.73582       -2.23927
O          3.96182       -0.76512       -2.20551
C          4.56058       -1.56339       -3.07904
O          4.03322       -2.29094       -3.90027
C          6.08147       -1.45350       -2.93979
S          6.82787       -2.77417       -3.94750
C          6.62894       -2.20302       -5.70494
C          7.42527       -3.10379       -6.60571
C          6.98929       -4.42893       -6.78353
C          7.69517       -5.30930       -7.59992
C          8.84577       -4.86165       -8.25350
C          9.27355       -3.54318       -8.09202
C          8.58579       -2.63843       -7.26951
C          9.07433       -1.21299       -7.16646
C          8.61102       -2.52407       -3.63114
C          9.02284       -3.09928       -2.27987
H          0.15013        0.80862       -0.19233
H         -0.00414       -0.76817       -0.98497
H          0.10937        0.71248       -1.96096
H          2.35957       -0.37108       -0.12864
H          2.46925        1.09284       -1.11574
H          2.18536       -0.30432       -3.20619
H          2.12673       -1.77463       -2.19738
H          6.39810       -1.61613       -1.90045
H          6.44705       -0.47023       -3.26936
H          6.92990       -1.14925       -5.74149
H          5.54430       -2.28762       -5.85121
H          6.07967       -4.76881       -6.28253
H          7.34484       -6.33272       -7.73167
H          9.40831       -5.53660       -8.89917
H         10.16282       -3.19847       -8.62238
H          9.98538       -1.07738       -7.76039
H          9.31682       -0.91277       -6.13609
H          8.33018       -0.49769       -7.54896
H          8.83323       -1.45303       -3.73246
H          9.08490       -3.06295       -4.46508
H          8.57162       -2.56293       -1.43524
H         10.11218       -3.00557       -2.17929
H          8.76929       -4.16384       -2.19819
