76

C          1.72937       -1.49170        0.87684
C          3.16447       -1.72637        0.40966
S          3.93414       -0.07691        0.15129
C          5.52566       -0.47879       -0.37605
N          6.42977        0.35827       -0.82975
N          7.57291       -0.39030       -1.09520
C          7.26988       -1.60591       -0.79453
O          6.00439       -1.78908       -0.32844
N          8.08658       -2.79251       -0.88906
C          9.16636       -2.86550        0.22083
C         10.32792       -1.94273       -0.08959
C         11.00169       -2.28174       -1.43452
C          9.92677       -2.19583       -2.54082
C          8.65646       -3.03489       -2.32998
C          8.70812       -4.55920       -2.50603
C          9.20422       -4.95702       -3.89832
C          9.10722       -6.43342       -4.29920
C         10.20686       -7.38905       -3.71543
Br        10.14640       -7.63375       -1.76504
F         10.12679       -8.59323       -4.30203
F         11.41944       -6.85350       -4.02464
Br         7.32155       -7.18956       -3.96534
F          9.31614       -6.47588       -5.66226
C         11.77941       -3.61445       -1.44386
C         12.84273       -3.76717       -0.35104
C         13.30729       -5.22795       -0.24685
S         13.93700       -5.68390        1.39107
C         12.42830       -5.92265        2.30797
S         10.88034       -5.80821        1.67039
N         12.67112       -6.24276        3.60954
C         14.01416       -6.26959        4.15431
C         14.65070       -7.49927        4.35282
C         15.93307       -7.52559        4.90254
C         16.57136       -6.33289        5.25568
C         15.92535       -5.10789        5.06318
C         14.64286       -5.07181        4.51455
C         11.61688       -6.64501        4.51478
C         11.29964       -5.82478        5.60027
C         10.33242       -6.24149        6.51782
C          9.69007       -7.47086        6.35170
C         10.01795       -8.28766        5.26481
C         10.98306       -7.87992        4.34467
H          1.23690       -2.46186        1.02249
H          1.14776       -0.92718        0.13648
H          1.69681       -0.95055        1.83149
H          3.19382       -2.27237       -0.54209
H          3.74769       -2.27184        1.16201
H          7.44690       -3.58197       -0.71649
H          9.47960       -3.91848        0.27955
H          8.64611       -2.60590        1.15109
H         11.03139       -2.03389        0.74857
H          9.98683       -0.89699       -0.09675
H         11.72029       -1.47262       -1.64154
H         10.34642       -2.48493       -3.51507
H          9.61173       -1.14774       -2.64650
H          7.86711       -2.63438       -2.98387
H          7.68587       -4.95655       -2.38149
H          9.32845       -5.03237       -1.73543
H         10.25908       -4.67686       -4.03425
H          8.62865       -4.42314       -4.66977
H         12.23847       -3.73867       -2.43852
H         11.09382       -4.46487       -1.32431
H         12.41200       -3.48786        0.61957
H         13.69903       -3.09837       -0.52550
H         14.14185       -5.45270       -0.92654
H         12.48197       -5.91763       -0.47236
H         14.14207       -8.42263        4.07502
H         16.43565       -8.48084        5.05454
H         17.57341       -6.35824        5.68453
H         16.42012       -4.17756        5.34312
H         14.12803       -4.12390        4.35452
H         11.81246       -4.87144        5.72909
H         10.08522       -5.60321        7.36664
H          8.93974       -7.79671        7.07244
H          9.52490       -9.25172        5.13596
H         11.24591       -8.51034        3.49540
