59

C          8.78905        3.84339       -6.75776
C          9.27872        2.52325       -6.15980
C          8.13087        1.59998       -5.73583
C          8.62033        0.27019       -5.14565
C          7.45317       -0.58400       -4.68254
O          7.88560       -1.91062       -4.19520
C          8.26298       -1.98580       -2.91165
O          8.32361       -1.07560       -2.11329
C          8.55908       -3.44323       -2.51357
N          9.36278       -4.21232       -3.45964
C         10.69249       -4.42325       -3.42878
N         11.31156       -5.38563       -4.18460
C         10.62442       -6.31802       -5.09846
C         11.57283       -7.10421       -5.99633
O         12.41263       -7.90554       -5.19340
C         13.05260       -8.97304       -5.91682
C         13.96860       -9.72863       -4.97889
O         13.19608      -10.38307       -3.99313
C         14.00169      -11.10592       -3.06753
C         12.64174       -5.36924       -3.81383
N         12.87913       -4.46443       -2.90985
N         11.66471       -3.85167       -2.68069
C         11.63992       -2.70423       -1.75406
C         12.83174       -1.75907       -1.98889
C         12.84761       -1.16973       -3.35465
C         13.84042       -1.23171       -4.25017
F         14.98886       -1.86030       -4.03121
F         13.79851       -0.67379       -5.44900
F         11.71702       -0.49541       -3.71261
H          9.63046        4.49125       -7.03741
H          8.16595        4.39841       -6.04125
H          8.18523        3.67322       -7.66113
H          9.91817        2.72633       -5.28475
H          9.91723        1.99842       -6.88995
H          7.47995        1.40311       -6.60514
H          7.50297        2.12245       -4.99397
H          9.28887        0.46718       -4.29474
H          9.20301       -0.28181       -5.90081
H          6.77182       -0.82815       -5.50714
H          6.89325       -0.09795       -3.87259
H          7.59215       -3.95879       -2.41274
H          9.02830       -3.44795       -1.52542
H          8.87352       -4.57859       -4.26961
H          9.95473       -5.73346       -5.74846
H         10.02453       -7.01319       -4.49134
H         12.15757       -6.41951       -6.64357
H         10.93831       -7.72140       -6.65984
H         13.64681       -8.56511       -6.75474
H         12.28051       -9.64944       -6.32466
H         14.69281       -9.02903       -4.51288
H         14.55277      -10.45547       -5.57917
H         13.32046      -11.56640       -2.34293
H         14.70106      -10.43661       -2.53410
H         14.58414      -11.89799       -3.57131
H         13.36767       -6.06411       -4.22124
H         11.66657       -3.08670       -0.72408
H         10.70225       -2.15885       -1.90258
H         13.77780       -2.28108       -1.80520
H         12.74235       -0.95763       -1.23676
