78

C          9.03951       -0.51960       -6.05842
C         10.32853       -0.24628       -5.27991
C         10.45392       -1.08478       -4.00336
C         11.74986       -0.83615       -3.22549
C         11.88154       -1.70100       -1.96842
C         13.18923       -1.48370       -1.20066
C         13.32329       -2.38782        0.02797
C         14.63468       -2.19878        0.80060
C         14.76432       -3.11501        2.02693
C         15.01916       -4.59197        1.68509
C         14.81816       -5.54460        2.87148
C         13.31702       -5.75748        3.19416
C         13.09372       -6.42192        4.51785
C         12.80252       -7.77609        4.63147
C         12.60897       -8.38861        5.88952
N         12.68537       -7.67218        7.01828
N         12.97561       -6.38746        6.87460
C         13.19213       -5.70508        5.73713
C         13.54330       -4.24928        5.89269
C         12.72616       -3.47326        6.94007
C         11.22992       -3.32046        6.58123
N         10.50033       -2.94512        7.79308
C         10.49878       -1.50836        8.12315
C          9.78799       -1.25532        9.45168
O         10.45841       -1.83964       10.56399
O         12.82083       -4.12712        8.21359
C         12.32328       -9.85089        6.03771
C         13.53301      -10.75942        5.67901
C         14.74842      -10.46744        6.56710
C         13.10894      -12.23018        5.76619
H          8.97971        0.09330       -6.96805
H          8.14992       -0.29755       -5.45007
H          8.97408       -1.57447       -6.36462
H         10.38315        0.82409       -5.01850
H         11.19948       -0.44237       -5.92799
H         10.38729       -2.15588       -4.26561
H          9.58814       -0.88201       -3.34782
H         11.81194        0.23013       -2.94568
H         12.61352       -1.02427       -3.88723
H         11.80147       -2.76562       -2.25242
H         11.02625       -1.50386       -1.29757
H         13.26495       -0.42711       -0.89016
H         14.04352       -1.66129       -1.87676
H         13.22207       -3.43795       -0.29700
H         12.47481       -2.20129        0.71187
H         14.70920       -1.14978        1.12923
H         15.49274       -2.36452        0.12690
H         13.83640       -3.01476        2.62129
H         15.58010       -2.75878        2.67719
H         16.05009       -4.69919        1.31464
H         14.36668       -4.91181        0.85655
H         15.34613       -5.14984        3.75547
H         15.26965       -6.52637        2.66318
H         12.85907       -6.36689        2.40263
H         12.79647       -4.78724        3.17948
H         12.70721       -8.38304        3.72863
H         12.95912       -5.79594        7.74206
H         13.45526       -3.73945        4.92499
H         14.60870       -4.18766        6.17085
H         13.18700       -2.47280        7.01856
H         10.83009       -4.28743        6.23680
H         11.11813       -2.59680        5.75146
H          9.54129       -3.28959        7.74601
H         10.01967       -0.90109        7.33047
H         11.54144       -1.17030        8.21867
H          8.73599       -1.59447        9.39310
H          9.76633       -0.17223        9.63752
H         10.23787       -2.78228       10.59995
H         11.96871       -3.85323        8.65296
H         11.47579      -10.11305        5.38399
H         12.01284      -10.03748        7.07563
H         13.81126      -10.54797        4.63031
H         14.51443      -10.64002        7.62832
H         15.10252       -9.43094        6.46819
H         15.58578      -11.12558        6.29977
H         12.82120      -12.49792        6.79399
H         13.93580      -12.88982        5.47151
H         12.25481      -12.44803        5.10984
