36

O          3.82816       -5.06490        5.01874
C          3.17188       -4.47206        3.89660
C          3.51559       -2.98262        3.92171
N          4.95413       -2.67422        3.93983
C          5.69488       -3.00245        2.73020
C          5.68548       -1.83164        1.73764
C          6.26135       -0.54850        2.37394
P          6.62057        0.69116        1.09173
C          5.07893        0.86995       -0.06071
O          4.12476        1.34740        0.49895
C          5.19167        0.41223       -1.47286
C          6.95979        2.36171        1.74870
C          7.48127        3.24930        0.64700
C          6.75822        4.20974        0.06355
O          6.39953       -2.13829        0.53072
H          3.57169       -5.99685        5.08216
H          2.07510       -4.58392        3.95806
H          3.50333       -4.94432        2.95235
H          3.08128       -2.53767        4.82874
H          3.03972       -2.48645        3.06142
H          5.36885       -3.15113        4.73982
H          5.32078       -3.89488        2.18957
H          6.74368       -3.20912        3.00546
H          4.64570       -1.62653        1.43281
H          7.21088       -0.74624        2.89902
H          5.55826       -0.11946        3.10269
H          7.76587        0.28635        0.36905
H          5.52843       -0.63656       -1.49330
H          5.96645        1.00497       -1.98687
H          4.22970        0.52654       -1.98518
H          7.67812        2.25106        2.57638
H          6.00792        2.72760        2.16419
H          8.51567        3.07529        0.33685
H          5.72918        4.42188        0.36213
H          7.18450        4.83509       -0.72011
H          7.02100       -2.86585        0.70237
