56

O          4.67324        0.45290        1.67839
C          4.05811       -0.81848        1.51462
C          2.52920       -0.66603        1.36055
N          1.96057       -0.09283        2.66365
C          1.60853       -0.82044        3.74364
N          1.03399       -0.23696        4.81630
N          1.85699       -2.14698        3.88368
N          1.34377       -2.84351        4.99359
C          0.40257       -3.88945        4.56299
C          2.44114       -3.37371        5.81988
C          2.07053        1.38258        2.91211
C          0.79365        2.20475        2.69165
C          0.99324        3.67826        3.09946
C         -0.25928        4.50105        2.88534
C         -0.57142        5.01030        1.61538
C         -1.74516        5.73781        1.40539
C         -2.62585        5.96949        2.46621
C         -2.32354        5.47287        3.73649
C         -1.14830        4.74462        3.94255
C          2.13659        0.30051        0.18286
C          2.99536        0.08716       -1.07358
C          0.64428        0.20712       -0.17911
C          1.97101       -2.06511        1.01739
H          5.63594        0.33790        1.68912
H          4.26332       -1.46738        2.38821
H          4.43862       -1.34063        0.61991
H          0.55032        0.64550        4.71550
H          0.72850       -0.90064        5.52886
H          2.37607       -2.65376        3.17060
H         -0.41523       -3.43492        3.99153
H         -0.01673       -4.36523        5.45782
H          0.89055       -4.66940        3.94819
H          3.08965       -2.55016        6.14052
H          3.04645       -4.12789        5.28265
H          2.00501       -3.84642        6.70831
H          2.88337        1.75267        2.28160
H          2.42717        1.50567        3.94553
H         -0.06268        1.79096        3.25304
H          0.49039        2.16390        1.63749
H          1.82421        4.10262        2.51277
H          1.29624        3.73371        4.15763
H          0.11949        4.84994        0.78373
H         -1.96868        6.13395        0.41392
H         -3.53958        6.54227        2.30459
H         -2.99885        5.66078        4.57211
H         -0.91144        4.37561        4.94382
H          2.34783        1.32546        0.51068
H          2.92172       -0.93590       -1.47124
H          4.05173        0.32318       -0.89871
H          2.63659        0.75872       -1.86467
H          0.42086       -0.70456       -0.75029
H          0.36403        1.05723       -0.81495
H         -0.01306        0.22017        0.70040
H          2.57261       -2.89005        1.42919
H          2.01711       -2.19807       -0.06936
H          0.92615       -2.19194        1.31927
