69

C          0.82551       -0.38371       -0.27342
C          2.34847       -0.31003       -0.14009
C          3.00290       -1.68268        0.05230
C          4.52685       -1.61752        0.20608
C          5.16349       -2.99744        0.40135
C          6.67460       -2.92817        0.62193
N          7.22654       -4.27630        0.76680
C          8.50024       -4.57427        1.09911
N          8.88563       -5.84854        1.15836
C         10.22399       -6.28319        1.56388
C         10.55702       -7.61755        0.87047
C          9.46491       -8.68828        1.00231
O          8.26247       -8.35420        1.09317
N          9.84070       -9.98867        0.96820
C          8.81156      -11.04060        1.07262
C          8.79159      -11.74800        2.43367
C          8.46417      -10.83338        3.61934
C          8.38173      -11.59215        4.94618
C         11.23473      -10.42729        0.88166
C         11.23244       -5.17931        1.22257
C         10.77230       -3.82032        1.76168
N          9.37411       -3.58758        1.35970
Si        11.86853       -2.33210        1.18372
C         10.97707       -0.76727        1.74551
C         13.53520       -2.51315        2.02723
C         12.00597       -2.36667       -0.69178
H          0.38773        0.61489       -0.40473
H          0.36565       -0.83205        0.61936
H          0.52768       -0.99213       -1.14027
H          2.61292        0.33979        0.71108
H          2.77518        0.17421       -1.03458
H          2.74835       -2.33164       -0.80388
H          2.56899       -2.17163        0.94218
H          4.77782       -0.97220        1.06578
H          4.96639       -1.13077       -0.68150
H          4.95718       -3.62502       -0.48306
H          4.69992       -3.50175        1.26557
H          6.88152       -2.34848        1.53832
H          7.15562       -2.40712       -0.22590
H          6.62991       -5.05327        0.50289
H          8.24133       -6.66474        1.05719
H         10.22675       -6.45047        2.65691
H         11.51528       -7.97070        1.27102
H         10.71033       -7.43795       -0.20790
H          9.00235      -11.76642        0.26751
H          7.84668      -10.55913        0.87697
H          9.75283      -12.26082        2.61081
H          8.03779      -12.54928        2.36471
H          7.51323      -10.31259        3.42272
H          9.22926      -10.04201        3.69705
H          7.59367      -12.35865        4.91856
H          8.15580      -10.91550        5.78112
H          9.32865      -12.10155        5.17835
H         11.78137       -9.88847        0.09855
H         11.24232      -11.48958        0.61530
H         11.76638      -10.31808        1.83918
H         11.35137       -5.13783        0.12753
H         12.21217       -5.42871        1.65205
H         10.81744       -3.84259        2.86705
H          9.04143       -2.63265        1.29201
H         10.77607       -0.77265        2.82628
H         10.02552       -0.60016        1.21695
H         11.60375        0.11030        1.53191
H         13.43280       -2.53835        3.12132
H         14.18394       -1.66298        1.77410
H         14.05502       -3.42777        1.70941
H         11.01622       -2.40233       -1.16954
H         12.58883       -3.22627       -1.04949
H         12.51022       -1.45747       -1.04835
