97

C          0.63812       -0.21764        0.06354
C          2.16428       -0.14047        0.15960
C          2.73025        1.23356       -0.21654
C          4.25765        1.31758       -0.12813
C          4.82252        2.69034       -0.50799
C          6.35052        2.77319       -0.42729
C          6.91364        4.14452       -0.81489
C          8.44196        4.22713       -0.74156
C          9.00479        5.59696       -1.13484
C         10.53367        5.67631       -1.06803
C         11.09851        7.04242       -1.47127
C         12.62815        7.11626       -1.41555
C         13.19536        8.47463       -1.84135
C         14.72615        8.53915       -1.80564
C         15.29557        9.89059       -2.25056
C         16.82708        9.94560       -2.22914
C         17.39842       11.29535       -2.67834
C         18.92955       11.34950       -2.62912
C         19.49832       12.70646       -3.05516
C         21.03886       12.76425       -2.91654
C         21.59716       14.11103       -3.28242
C         21.81499       15.03696       -2.28490
N         22.26173       16.29872       -2.58031
C         22.51160       16.72054       -3.82580
C         22.32452       15.84422       -4.90210
C         21.86574       14.50492       -4.63601
C         21.68860       13.65038       -5.74162
C         21.94541       14.05466       -7.04599
C         21.56925       13.10731       -8.15447
C         20.06237       13.24623       -8.45058
O         19.20001       13.18376       -7.59825
O         19.86853       13.44122       -9.76316
C         18.48728       13.66405      -10.20570
C         18.11538       15.13869      -10.11642
C         19.04337       16.06452      -10.90799
C         22.42055       15.39023       -7.30573
C         22.58081       16.25397       -6.23214
C         22.71552       15.92154       -8.65447
C         23.47981       15.34519       -9.59079
H          0.26560       -1.21379        0.34004
H          0.29092       -0.00543       -0.95886
H          0.15826        0.51324        0.73173
H          2.61374       -0.90809       -0.49321
H          2.48232       -0.39471        1.18507
H          2.28337        2.00260        0.43850
H          2.40947        1.49029       -1.24193
H          4.70305        0.54701       -0.78214
H          4.57818        1.06239        0.89752
H          4.38054        3.46081        0.14838
H          4.49796        2.94666       -1.53210
H          6.79218        2.00016       -1.08090
H          6.67612        2.52140        0.59756
H          6.47474        4.91742       -0.15932
H          6.58423        4.39696       -1.83843
H          8.88017        3.45239       -1.39546
H          8.77218        3.97743        0.28232
H          8.57003        6.37212       -0.47920
H          8.67167        5.84754       -2.15763
H         10.96703        4.89714       -1.71992
H         10.86746        5.43077       -0.04431
H         10.67070        7.82251       -0.81695
H         10.75967        7.28865       -2.49325
H         13.05365        6.32688       -2.06018
H         12.96817        6.88299       -0.39110
H         12.78064        9.26467       -1.19066
H         12.84533        8.71101       -2.86178
H         15.13853        7.74149       -2.44842
H         15.07777        8.31336       -0.78349
H         14.89271       10.68847       -1.60205
H         14.93654       10.12008       -3.26924
H         17.23025        9.14574       -2.87466
H         17.18578        9.71972       -1.20951
H         16.98593       12.09625       -2.03988
H         17.05590       11.51760       -3.70372
H         19.34795       10.55777       -3.27444
H         19.26943       11.11709       -1.60470
H         19.05839       13.50536       -2.43494
H         19.20777       12.92982       -4.09476
H         21.50039       11.98044       -3.53520
H         21.31356       12.53350       -1.87628
H         21.64793       14.82803       -1.23044
H         22.41064       16.94665       -1.80802
H         22.85836       17.74606       -3.94382
H         21.30745       12.64345       -5.58061
H         21.73207       12.06934       -7.83126
H         22.12687       13.27698       -9.07620
H         17.82063       13.03857       -9.59877
H         18.49114       13.30739      -11.24371
H         18.08028       15.43671       -9.05701
H         17.08248       15.22580      -10.49039
H         20.07754       16.00750      -10.53979
H         18.71462       17.10877      -10.82810
H         19.05792       15.80118      -11.97569
H         22.92753       17.27340       -6.41202
H         22.31630       16.92205       -8.84782
H         23.96438       14.37881       -9.44423
H         23.67709       15.85112      -10.53510
