80

C         17.23546       -3.81264        6.33640
C         16.29641       -3.12973        5.33894
C         16.52259       -3.56878        3.88773
C         15.55433       -2.92000        2.89352
C         15.76644       -3.37066        1.44549
C         14.76338       -2.76811        0.45533
C         14.98045       -3.25654       -0.97871
C         13.96472       -2.71994       -1.99230
C         14.23294       -3.24127       -3.41017
C         13.16944       -2.80313       -4.39991
O         13.52864       -3.31241       -5.70948
C         12.62167       -2.94369       -6.70183
N         13.06317       -3.57181       -7.95173
C         13.79628       -2.92594       -8.87072
N         14.04495       -3.78946       -9.85520
C         13.48007       -5.03679       -9.59580
C         12.85650       -4.89431       -8.36549
C         12.08615       -5.86716       -7.52755
C         12.77567       -7.24163       -7.33572
O         14.13636       -7.17115       -6.97173
C         14.36172       -6.76534       -5.61707
C         15.83871       -6.96135       -5.30519
O         16.05608       -6.36279       -4.04071
C         17.37674       -6.54880       -3.53501
C         17.46615       -5.74135       -2.24865
O         18.75015       -5.93255       -1.68897
C         18.91895       -5.20087       -0.48235
Si        13.65037       -6.45459      -10.87954
C         15.00115       -7.62796      -10.32319
C         11.96641       -7.25835      -11.08148
C         14.15203       -5.58664      -12.47570
H         17.04679       -3.47327        7.36414
H         18.28985       -3.59939        6.10523
H         17.10935       -4.90570        6.31987
H         16.41547       -2.03499        5.40861
H         15.24931       -3.33621        5.61853
H         16.42902       -4.66763        3.82207
H         17.56211       -3.33768        3.59369
H         15.64917       -1.82151        2.95250
H         14.51737       -3.14890        3.19647
H         15.70431       -4.47258        1.39517
H         16.79266       -3.11378        1.12789
H         14.82968       -1.66663        0.48639
H         13.73779       -3.01944        0.77791
H         14.94651       -4.35916       -0.99319
H         15.99851       -2.98213       -1.30504
H         13.98248       -1.61643       -1.98907
H         12.94815       -3.01053       -1.67458
H         14.29219       -4.34043       -3.40268
H         15.21363       -2.88476       -3.76401
H         13.09695       -1.70041       -4.45012
H         12.17398       -3.19719       -4.12112
H         12.59733       -1.85087       -6.87364
H         11.59065       -3.28122       -6.48873
H         14.12078       -1.89335       -8.81431
H         14.56559       -3.56210      -10.69858
H         11.09803       -6.04833       -7.98133
H         11.89654       -5.42137       -6.54285
H         12.74706       -7.81260       -8.27314
H         12.19038       -7.80956       -6.58868
H         13.74199       -7.37225       -4.93154
H         14.10667       -5.70233       -5.47373
H         16.45517       -6.47781       -6.08905
H         16.09434       -8.03808       -5.29216
H         18.12953       -6.19208       -4.26290
H         17.57438       -7.61832       -3.33496
H         16.67328       -6.07054       -1.54747
H         17.28672       -4.67126       -2.47228
H         19.93190       -5.41012       -0.11928
H         18.18477       -5.50829        0.28464
H         18.81180       -4.11303       -0.65193
H         14.84446       -8.00958       -9.30701
H         15.97753       -7.12346      -10.33936
H         15.05449       -8.48221      -11.01351
H         11.61001       -7.75579      -10.17061
H         12.02534       -8.02370      -11.86868
H         11.21177       -6.52153      -11.38878
H         15.14378       -5.11303      -12.41358
H         13.41664       -4.83840      -12.80354
H         14.22485       -6.33741      -13.27603
