60

C          2.00840       -1.55414        3.74356
C          1.40827       -0.53226        2.77592
N          1.53897       -0.89917        1.34796
C          0.65489       -1.79713        0.85523
O         -0.24590       -2.29649        1.54331
C          0.75305       -2.18180       -0.64612
C          0.07092       -3.53616       -0.85300
C          1.08730       -4.67421       -0.99030
O          0.48059       -5.95336       -1.04080
C         -0.43235       -6.05311       -2.12394
C         -1.52473       -4.99994       -2.00918
N         -0.96152       -3.58242       -2.00779
C         -0.28901       -3.22929       -3.33808
C         -1.11949       -3.48881       -4.59203
C         -0.30814       -3.11628       -5.84018
S         -1.27315       -3.57663       -7.30133
O         -1.34829       -5.02183       -7.36343
O         -2.45181       -2.75059       -7.31696
O         -0.29499       -3.06127       -8.47946
C         -2.10891       -2.59455       -1.79443
C         -2.82983       -2.69305       -0.44554
C         -3.70616       -1.46508       -0.17341
C         -4.84336       -1.16149       -1.20824
Br        -5.99338       -2.71340       -1.54825
F         -5.59224       -0.12659       -0.80929
F         -4.25812       -0.80561       -2.39248
Br        -4.49219       -1.64946        1.60566
F         -2.89945       -0.33820       -0.17877
C          2.62299       -0.28638        0.56736
C          3.96578       -1.01336        0.68004
H          1.87299       -1.20305        4.77548
H          3.08382       -1.69588        3.57641
H          1.50591       -2.52477        3.65083
H          1.89354        0.44622        2.89242
H          0.33743       -0.40584        2.98308
H          1.79000       -2.21509       -1.00446
H          0.26176       -1.37292       -1.20743
H         -0.52404       -3.73511        0.04848
H          1.70631       -4.65989       -0.08232
H          1.76768       -4.52469       -1.85227
H         -0.89884       -7.04467       -2.05629
H          0.09573       -6.00276       -3.09533
H         -2.04173       -5.12155       -1.05035
H         -2.26230       -5.07431       -2.81646
H          0.64413       -3.80100       -3.38232
H         -0.02231       -2.16788       -3.25933
H         -2.05118       -2.90680       -4.59289
H         -1.39170       -4.55093       -4.66918
H          0.64220       -3.66439       -5.90296
H         -0.11408       -2.03765       -5.91662
H          0.04210       -3.84670       -8.95358
H         -2.80035       -2.77223       -2.62462
H         -1.68186       -1.59379       -1.92386
H         -2.11482       -2.70559        0.39052
H         -3.46501       -3.58394       -0.38185
H          2.72391        0.74909        0.92246
H          2.31143       -0.20915       -0.48252
H          4.33755       -1.01263        1.71203
H          4.71800       -0.51643        0.05274
H          3.88547       -2.06035        0.35425
