98

C          0.58443       -0.11697       -0.29280
C          2.11504       -0.07694       -0.27939
C          2.72282       -0.52017        1.05594
C          4.25392       -0.47212        1.08479
C          4.85596       -0.90149        2.42646
C          6.38600       -0.83636        2.46721
C          6.97982       -1.23860        3.82077
C          8.50861       -1.15956        3.87329
C          9.09550       -1.55270        5.23215
C         10.62466       -1.48172        5.29076
C         11.19974       -1.87457        6.65485
C         12.72885       -1.81544        6.72555
C         13.28776       -2.21501        8.09439
C         14.81758       -2.18835        8.17608
C         15.35291       -2.60417        9.54955
C         16.88170       -2.63308        9.64388
C         17.38582       -3.08278       11.01866
C         18.90915       -3.21039       11.11234
C         19.37684       -3.69805       12.48708
C         20.89059       -3.92912       12.55954
C         21.34787       -4.45345       13.91534
C         22.86868       -4.61016       13.98119
N         23.24946       -5.26655       15.28921
C         22.51708       -6.58354       15.56729
C         21.01616       -6.25077       15.43669
O         20.72823       -5.72406       14.14776
C         20.12343       -7.47358       15.64968
O         20.61274       -8.15264       16.78601
C         19.88335       -9.35725       17.08476
C         20.56348      -10.05417       18.24421
C         22.98620       -7.72052       14.65146
C         24.49411       -7.89470       14.36988
C         25.47049       -7.98358       15.54320
C         25.18495       -9.04920       16.65247
Br        24.98428      -10.84838       15.91876
F         26.15731       -9.04124       17.57702
F         24.02453       -8.71347       17.28804
Br        27.27868       -8.22360       14.85752
F         25.45676       -6.74431       16.23100
H          0.17978        0.20488       -1.26238
H          0.16140        0.54338        0.47910
H          0.20971       -1.13295       -0.09739
H          2.45910        0.94529       -0.51179
H          2.50831       -0.71728       -1.08721
H          2.38472       -1.54599        1.28709
H          2.32353        0.11630        1.86566
H          4.59034        0.55248        0.84666
H          4.65533       -1.11450        0.28108
H          4.52814       -1.92945        2.66184
H          4.44454       -0.26431        3.22929
H          6.71354        0.18805        2.21621
H          6.80179       -1.48657        1.67725
H          6.65922       -2.26577        4.06939
H          6.55515       -0.59287        4.60976
H          8.82942       -0.13348        3.62067
H          8.93557       -1.80927        3.08895
H          8.76931       -2.57650        5.48754
H          8.67096       -0.89910        6.01474
H         10.95363       -0.45895        5.03548
H         11.05095       -2.13807        4.51151
H         10.86404       -2.89541        6.91004
H         10.77355       -1.21612        7.43237
H         13.06851       -0.79534        6.47406
H         13.15603       -2.47508        5.94964
H         12.93027       -3.22830        8.34996
H         12.87003       -1.54618        8.86755
H         15.18256       -1.17611        7.92898
H         15.23581       -2.85722        7.40322
H         14.95886       -3.60446        9.80248
H         14.95246       -1.92095       10.31912
H         17.28743       -1.63352        9.41008
H         17.28177       -3.31092        8.86934
H         16.92953       -4.05678       11.26863
H         17.02864       -2.37688       11.78874
H         19.38095       -2.23993       10.88002
H         19.26234       -3.91323       10.33748
H         18.85916       -4.63700       12.73635
H         19.08199       -2.96704       13.25974
H         21.42777       -2.98870       12.35065
H         21.19945       -4.64980       11.78383
H         21.02453       -3.75143       14.71484
H         23.38432       -3.64211       13.93385
H         23.23350       -5.25240       13.17014
H         23.02391       -4.62079       16.05902
H         24.26486       -5.44361       15.35480
H         22.74132       -6.81874       16.61424
H         20.77240       -5.49213       16.21057
H         20.15197       -8.11255       14.74495
H         19.07869       -7.13716       15.78099
H         19.86776      -10.00141       16.18526
H         18.83709       -9.09781       17.32835
H         21.59552      -10.32866       17.98886
H         20.01830      -10.97236       18.49973
H         20.58282       -9.41100       19.13329
H         22.49621       -7.62686       13.67153
H         22.58711       -8.63624       15.10765
H         24.88052       -7.08224       13.73375
H         24.61506       -8.80621       13.77106
