58

N          0.49622       -0.73040       -0.48558
C          1.89035       -1.11622       -0.71497
C          2.58332       -0.07910       -1.60491
C          4.07416       -0.38206       -1.79433
C          4.92208        0.66776       -2.55976
C          4.43974        0.61533       -4.06162
C          4.53079        1.81708       -5.01919
O          3.84367        1.56480       -6.23517
N          6.32908        0.27264       -2.35638
C          7.32911        1.09634       -3.02136
C          7.23888        2.50701       -2.45955
N          5.82686        3.00998       -2.54253
C          4.77802        2.08827       -1.92672
C          4.86274        2.13712       -0.38781
C          4.28726        3.40685        0.27965
P          5.31121        4.89785        0.19374
O          5.71168        5.25024       -1.21945
O          4.50440        6.05114        0.92377
C          4.16754        7.33937        0.29384
C          5.19575        8.39283        0.64794
O          6.52144        4.51053        1.15097
C          7.60147        5.46625        1.43867
C          8.71480        4.71798        2.13677
H          0.07364       -1.31575        0.23469
H         -0.06265       -0.86541       -1.32960
H          2.02019       -2.12384       -1.16061
H          2.39407       -1.14379        0.26477
H          2.41939        0.90720       -1.14163
H          2.06455       -0.04234       -2.57681
H          4.18090       -1.33428       -2.34228
H          4.54962       -0.55409       -0.81691
H          3.37522        0.34372       -4.06671
H          4.96923       -0.23453       -4.52353
H          5.57845        2.11423       -5.22814
H          4.00296        2.69174       -4.59900
H          4.31475        0.87563       -6.73061
H          6.45395       -0.71441       -2.57950
H          7.24115        1.12572       -4.12778
H          8.32655        0.69481       -2.79688
H          7.86684        3.21933       -3.00931
H          7.52965        2.53032       -1.40226
H          5.58917        3.15928       -3.53027
H          5.77640        3.98466       -2.05316
H          3.81503        2.52115       -2.23830
H          5.88722        1.94060       -0.04507
H          4.27276        1.29592       -0.00952
H          4.10307        3.20902        1.34552
H          3.31352        3.67761       -0.15886
H          3.17474        7.58073        0.69219
H          4.09528        7.18872       -0.79157
H          5.29963        8.49489        1.73606
H          4.87580        9.36403        0.24483
H          6.17552        8.15597        0.21238
H          7.18081        6.26017        2.07255
H          7.93819        5.90800        0.48884
H          8.35901        4.26108        3.06916
H          9.52568        5.41622        2.38470
H          9.12825        3.92946        1.49430
