31

C          5.37262       -0.68213        2.19785
C          4.40635       -0.32523        1.08910
O          4.91867        0.82339        0.36710
C          4.06494        1.25192       -0.68022
C          4.70666        2.51553       -1.26564
P          6.51491        2.32835       -1.33681
C          7.14089        0.86244       -2.25213
O          8.51035        0.84622       -1.98306
C          9.26810       -0.05109       -2.84620
C         10.73534        0.05276       -2.47223
C         11.60607       -0.84355       -3.35898
Br         7.36391        4.11262       -2.20995
H          4.98129       -1.54007        2.76017
H          5.49758        0.15334        2.89847
H          6.35657       -0.96164        1.79862
H          3.41295       -0.06267        1.49311
H          4.27610       -1.16325        0.38099
H          3.05265        1.49352       -0.30927
H          3.96008        0.47046       -1.45664
H          4.53857        3.39516       -0.62523
H          4.34231        2.75339       -2.27476
H          7.05387        2.26265       -0.03665
H          6.89240        0.99814       -3.32422
H          6.59363       -0.02195       -1.86548
H          9.09860        0.24625       -3.89700
H          8.89042       -1.07986       -2.70787
H         10.85464       -0.22608       -1.41449
H         11.05191        1.10258       -2.56613
H         11.32001       -1.90115       -3.27214
H         12.65995       -0.76108       -3.06667
H         11.53237       -0.55849       -4.41789
