54

O          2.11644       -1.04416       -0.48922
C          2.27904        0.21784        0.15285
C          3.29370        1.07199       -0.62046
S          2.50777        1.22311       -2.37855
C          3.49476        2.47961       -3.25215
C          2.58825        3.62798       -3.86015
N          1.82209        4.36920       -2.88220
N          3.57482        4.56385       -4.38777
N          1.64309        3.14928       -4.86274
C          2.91850       -0.33331       -3.33215
C          2.38991       -0.22169       -4.72638
C          3.25577        0.03572       -5.80000
C          2.75706        0.17485       -7.09728
C          1.38377        0.06412       -7.36155
C          0.52381       -0.20981       -6.28037
C          1.01410       -0.35139       -4.98644
C          0.84018        0.21416       -8.75584
C          3.29092        2.52062       -0.07502
C          3.30923        2.73885        1.46348
C          4.56552        2.21648        2.17414
C          3.13784        4.24526        1.71611
C          4.67483        0.42994       -0.72188
H          1.56804       -1.61388        0.07191
H          2.67432        0.09176        1.17506
H          1.31663        0.75571        0.22305
H          4.04749        1.95373       -4.04303
H          4.21690        2.90637       -2.54813
H          2.41704        4.82360       -2.19284
H          1.08533        3.83057       -2.43120
H          4.11269        4.14213       -5.14648
H          3.06351        5.35360       -4.78895
H          0.77032        2.79991       -4.46913
H          2.03640        2.43028       -5.46893
H          2.43852       -1.11364       -2.73139
H          4.00753       -0.45511       -3.29823
H          4.33261        0.10540       -5.62829
H          3.44807        0.36535       -7.92009
H         -0.54702       -0.31639       -6.46306
H          0.32412       -0.56490       -4.16730
H          1.62250        0.50084       -9.46828
H          0.04721        0.97480       -8.79194
H          0.39437       -0.72938       -9.10434
H          2.38605        3.02899       -0.44551
H          4.15062        3.06290       -0.49939
H          2.42937        2.23429        1.89734
H          5.48221        2.61530        1.71328
H          4.63539        1.12034        2.18067
H          4.56222        2.53714        3.22439
H          3.98744        4.81581        1.31098
H          3.08479        4.45345        2.79267
H          2.21804        4.63337        1.25588
H          4.62114       -0.61284       -1.05454
H          5.14490        0.43172        0.26914
H          5.33823        0.99333       -1.39160
