93

C          1.08252        0.36054        0.45411
C          2.59358        0.11657        0.45713
C          3.28248        0.56298       -0.83735
C          4.79340        0.30861       -0.85666
C          5.47093        0.77283       -2.14983
C          6.97588        0.48883       -2.20624
C          7.62329        0.95497       -3.51387
C          9.12003        0.64532       -3.62650
C          9.71124        1.09000       -4.96728
C         11.20195        0.77495       -5.14361
C         11.68097        1.16468       -6.54946
C         13.18866        1.02865       -6.90430
C         13.71783       -0.40617       -6.58716
C         14.28480       -0.36212       -5.17462
N         14.83780        1.03511       -5.01325
C         14.03312        1.92379       -5.93949
C         16.33193        1.09361       -5.19280
C         16.93007        2.48465       -5.00782
C         16.61723        3.19782       -3.68446
S         17.22408        2.34721       -2.19489
C         15.74037        1.75538       -1.38415
S         14.19146        1.84221       -2.06441
N         15.96515        1.25593       -0.15902
C         17.30311        1.20759        0.46721
C         17.61573        2.43744        1.32074
C         14.86264        0.72116        0.66925
C         14.64763       -0.77803        0.46519
C         13.43314        1.49860       -8.41829
C         12.49272        0.77170       -9.45983
C         12.72148        1.26317      -10.90363
C         12.51581       -0.76605       -9.46191
C         13.07093        3.03837       -8.47935
O         13.78093        3.81218       -9.44307
C         14.90616        1.30213       -8.82244
H          0.61808        0.03181        1.39383
H          0.59211       -0.18458       -0.36635
H          0.84949        1.42797        0.32430
H          2.79343       -0.95577        0.62270
H          3.05106        0.64357        1.31176
H          3.09076        1.63872       -0.99844
H          2.81617        0.04445       -1.69400
H          4.98326       -0.76963       -0.71125
H          5.26171        0.81607        0.00528
H          5.29959        1.85567       -2.28227
H          4.98048        0.28504       -3.01075
H          7.14809       -0.59451       -2.07802
H          7.47587        0.97806       -1.35161
H          7.46784        2.04195       -3.62999
H          7.09647        0.48536       -4.36320
H          9.28034       -0.43971       -3.49687
H          9.66406        1.13455       -2.79900
H          9.55600        2.17536       -5.09480
H          9.14732        0.60930       -5.78547
H         11.35648       -0.30300       -4.96691
H         11.77034        1.30574       -4.35849
H         11.38073        2.21037       -6.72555
H         11.10450        0.56662       -7.26872
H         14.50020       -0.70712       -7.29318
H         12.92573       -1.15954       -6.65168
H         15.08293       -1.08866       -4.98317
H         13.51374       -0.48328       -4.40419
H         14.64195        1.34544       -4.00489
H         14.73526        2.57166       -6.46800
H         13.40623        2.55880       -5.30099
H         16.57020        0.70034       -6.19020
H         16.74335        0.40390       -4.44275
H         16.62524        3.15438       -5.82754
H         18.01860        2.36722       -5.12023
H         15.53975        3.36378       -3.52560
H         17.11429        4.17661       -3.67083
H         18.05859        1.06956       -0.31878
H         17.32693        0.29374        1.07740
H         17.61525        3.35267        0.71531
H         18.61096        2.32624        1.77104
H         16.89072        2.55983        2.13629
H         13.95444        1.28436        0.42593
H         15.12544        0.94112        1.71343
H         14.34597       -0.99287       -0.56785
H         13.84977       -1.12809        1.13347
H         15.55389       -1.35514        0.69458
H         11.46675        1.07613       -9.19594
H         13.67075        0.89027      -11.31503
H         12.72805        2.35527      -10.99288
H         11.91944        0.87602      -11.54596
H         13.52727       -1.17335       -9.60797
H         11.90664       -1.13286      -10.29864
H         12.09664       -1.21073       -8.55092
H         13.17563        3.51022       -7.48838
H         12.01293        3.14095       -8.75646
H         14.65618        4.03732       -9.09441
H         15.17028        0.24357       -8.93668
H         15.61638        1.74032       -8.10419
H         15.10237        1.78400       -9.78579
