49

C          3.83945        8.43117       -3.56915
C          5.08615        8.07307       -2.75718
C          4.85177        6.92855       -1.76260
C          6.10546        6.58605       -0.94665
C          5.88474        5.43031        0.01263
O          7.12499        5.18182        0.72244
C          7.08397        4.05064        1.59411
C          8.49052        3.82453        2.15696
C          9.04949        4.96731        2.96611
N          8.61210        6.19952        2.65433
N          8.92119        7.34692        3.23846
C          9.78783        7.27860        4.25345
C         10.35465        6.04609        4.64101
C         10.00620        4.86062        4.00307
C         10.57724        3.54154        4.43403
C          9.75970        2.90947        5.59202
O          9.73021        3.74651        6.74012
C         10.11257        8.58804        4.92085
C         11.16905        9.43357        4.16867
C         12.59389        8.93082        4.29518
F         12.71057        7.63441        3.73787
H          4.04337        9.25120       -4.27038
H          3.01365        8.75063       -2.91662
H          3.48392        7.57288       -4.15793
H          5.43808        8.96285       -2.20837
H          5.90575        7.79463       -3.44055
H          4.51264        6.03364       -2.31231
H          4.02688        7.19953       -1.08146
H          6.42738        7.47274       -0.37462
H          6.93458        6.32757       -1.62461
H          5.60582        4.50862       -0.52802
H          5.08608        5.65349        0.74354
H          6.76897        3.15102        1.03874
H          6.35423        4.21375        2.41138
H          9.18431        3.61621        1.32396
H          8.47263        2.91893        2.77738
H          7.94173        6.24919        1.85099
H         11.08404        6.02817        5.44995
H         11.61182        3.69272        4.77324
H         10.61528        2.83123        3.59597
H         10.17750        1.91625        5.81700
H          8.71330        2.76624        5.28058
H         10.44779        3.48997        7.33924
H         10.44553        8.39748        5.95183
H          9.18002        9.16620        4.97619
H         11.14531       10.45527        4.57835
H         10.89249        9.51535        3.10636
H         12.91281        8.85455        5.34698
H         13.29640        9.57959        3.75280
