90

C          0.36186       -0.93951        1.17906
C          1.86952       -0.74622        0.99889
C          2.64255       -0.70164        2.32226
C          4.15281       -0.52168        2.13937
C          4.93654       -0.44503        3.45426
C          6.44398       -0.26681        3.24492
C          7.24394       -0.12277        4.54412
C          8.74565        0.06371        4.29787
C          9.55622        0.28733        5.58246
C         11.03185        0.47218        5.28367
O         11.73173        0.78936        6.51548
C         13.09697        1.04280        6.30876
P         13.69008        1.90839        7.81583
C         13.32312        1.01585        9.37885
C         14.42130       -0.03645        9.63446
O         14.71279       -0.78902        8.45502
C         13.15892        1.99855       10.56390
C         11.80424        2.70800       10.61973
C         15.42661        2.37859        7.65032
C         15.67676        3.45443        6.57827
C         17.17291        3.61743        6.27103
S         17.93590        2.11261        5.61916
C         18.77578        1.42765        7.07785
S         18.88342        2.24452        8.52960
N         19.31344        0.21205        6.84059
C         20.04720       -0.49370        7.91462
C         19.15147       -1.16676        8.96449
C         18.11007       -2.14790        8.41630
C         17.29879       -2.81326        9.53122
C         19.21753       -0.46834        5.53252
C         20.27453       -0.05479        4.49605
C         21.72363       -0.40491        4.85180
C         22.70002       -0.04625        3.72860
H         -0.15917       -0.96540        0.21230
H         -0.07830       -0.12319        1.77083
H          0.13880       -1.88175        1.70130
H          2.05717        0.18642        0.44013
H          2.27297       -1.55858        0.37107
H          2.44968       -1.62971        2.88900
H          2.24810        0.11955        2.94667
H          4.34050        0.39586        1.55402
H          4.54677       -1.35286        1.52831
H          4.75270       -1.35828        4.04688
H          4.54967        0.39220        4.06147
H          6.61803        0.62367        2.61535
H          6.83527       -1.12331        2.66821
H          7.08221       -1.00968        5.18091
H          6.85803        0.73807        5.11751
H          8.89457        0.92299        3.62114
H          9.13761       -0.81722        3.76084
H          9.42612       -0.56425        6.26915
H          9.18563        1.18229        6.10789
H         11.18918        1.30216        4.56925
H         11.47249       -0.44244        4.84654
H         13.27932        1.72515        5.45434
H         13.70882        0.13302        6.16767
H         12.91562        3.09113        7.85399
H         12.36527        0.50497        9.17910
H         14.09971       -0.68399       10.46417
H         15.35607        0.45514        9.94913
H         14.27464       -1.65126        8.50642
H         13.98382        2.73056       10.56971
H         13.29481        1.40723       11.48364
H         11.61867        3.34203        9.74076
H         11.74953        3.35866       11.50125
H         10.98022        1.98426       10.68627
H         15.97070        1.45239        7.40081
H         15.79380        2.70137        8.63559
H         15.27909        4.42421        6.91811
H         15.14594        3.20332        5.64681
H         17.75082        3.88870        7.17179
H         17.31977        4.38765        5.50275
H         20.70476        0.23602        8.40648
H         20.67742       -1.24156        7.41711
H         18.64995       -0.38608        9.55598
H         19.82821       -1.69121        9.65937
H         18.60598       -2.92628        7.81170
H         17.42236       -1.61610        7.73849
H         17.94290       -3.39550       10.20530
H         16.54271       -3.49935        9.12470
H         16.77861       -2.06222       10.14404
H         18.20881       -0.29178        5.12895
H         19.29030       -1.54524        5.73451
H         20.19207        1.02550        4.29877
H         19.99741       -0.55554        3.55283
H         21.79793       -1.48327        5.07432
H         22.01971        0.12350        5.77254
H         22.45358       -0.57913        2.79864
H         23.73180       -0.30802        3.99727
H         22.67679        1.03117        3.50972
