77

C          0.44313        0.14248        0.17318
C          1.96799        0.21663        0.28580
C          2.66246        0.50159       -1.05075
C          4.19177        0.52234       -0.95823
C          4.87896        0.79893       -2.29931
C          6.40701        0.69215       -2.24633
C          7.07129        0.94978       -3.60221
C          8.58682        0.72340       -3.60279
C          9.18676        0.91795       -5.01322
C         10.65643        0.58426       -5.16450
C         11.52934        1.70061       -5.15515
C         12.89427        1.56821       -5.20468
C         13.46027        0.29220       -5.37929
C         12.59889       -0.87681       -5.49004
C         11.17626       -0.72161       -5.26755
C         10.28904       -1.91596       -4.95954
C          9.07146       -2.23294       -5.85084
C          8.42446       -3.54835       -5.40682
C          7.22964       -3.91942       -6.28796
S          6.72084       -5.61233       -5.95070
O          7.69180       -6.52496       -6.53019
O          6.33836       -5.71023       -4.56546
O          5.36473       -5.70784       -6.84125
C         13.26185       -2.09248       -5.87352
N         14.61458       -2.08993       -5.90957
C         15.44611       -1.03062       -5.67939
C         14.87297        0.18032       -5.44638
C         12.70954       -3.42665       -6.33707
C         11.73466       -3.50932       -7.50920
C         10.87630       -4.62069       -7.49288
C          9.97184       -4.86378       -8.52310
C          9.91031       -3.97225       -9.59498
C         10.77900       -2.88280       -9.63430
C         11.71677       -2.63343       -8.61752
C         12.65382       -1.46106       -8.79432
H         -0.02252       -0.06648        1.14592
H          0.13241       -0.65284       -0.52068
H          0.02197        1.08808       -0.19969
H          2.35252       -0.73249        0.69660
H          2.24829        0.99577        1.01453
H          2.30410        1.46708       -1.44975
H          2.35532       -0.26084       -1.78855
H          4.54217       -0.44799       -0.56405
H          4.50757        1.27979       -0.21981
H          4.59217        1.80200       -2.66002
H          4.49740        0.08770       -3.05354
H          6.68622       -0.31526       -1.88991
H          6.80481        1.39907       -1.49803
H          6.85047        1.97843       -3.93517
H          6.61363        0.28546       -4.35718
H          8.79342       -0.29008       -3.22655
H          9.08112        1.41291       -2.89946
H          9.05791        1.97354       -5.29451
H          8.59379        0.35080       -5.74036
H         11.08843        2.69445       -5.05999
H         13.54880        2.43639       -5.12427
H          9.92733       -1.76317       -3.92971
H         10.89835       -2.82008       -4.89020
H          9.37974       -2.29459       -6.90384
H          8.31634       -1.44024       -5.78752
H          8.09479       -3.47770       -4.35922
H          9.16974       -4.35647       -5.44935
H          7.48001       -3.88256       -7.35729
H          6.35249       -3.28490       -6.10040
H          5.53235       -6.35360       -7.55405
H         15.04815       -2.97002       -6.18697
H         16.51381       -1.22715       -5.73405
H         15.49384        1.06500       -5.31424
H         12.25290       -3.94304       -5.47968
H         13.58246       -4.05410       -6.59421
H         10.91735       -5.31717       -6.65267
H          9.32010       -5.73559       -8.47193
H          9.20418       -4.13415      -10.40985
H         10.75138       -2.20561      -10.49016
H         12.65213       -1.13597       -9.84146
H         13.69441       -1.70666       -8.54050
H         12.35802       -0.59222       -8.18804
