65

N         -0.26602       -2.50548       -1.28617
C          1.09943       -2.15799       -0.88589
C          1.84980       -1.51836       -2.05772
C          3.25632       -1.04955       -1.67752
C          4.00261       -0.40807       -2.85022
C          5.41580        0.06201       -2.42308
C          6.20122        0.60429       -3.55765
N          6.97563       -0.09407       -4.40763
C          7.26691       -1.52825       -4.37516
C          8.41348       -1.85713       -3.39873
O          8.43450       -3.26622       -3.13827
C          7.51373       -3.70923       -2.21376
O          6.71731       -2.95761       -1.68329
C          7.65080       -5.19025       -1.98222
C          6.55189       -5.78551       -1.09838
C          6.73890       -7.28776       -0.87687
N          7.53005        0.69705       -5.37044
C          7.07104        1.89503       -5.10224
N          6.24466        1.88592       -4.00495
C          5.59092        3.06272       -3.39614
C          6.45231        3.71708       -2.31357
C          5.76710        4.95175       -1.71598
C          6.59930        5.61778       -0.61462
C          5.93030        6.86166       -0.02010
C          6.74559        7.51204        1.10327
C          6.07762        8.75831        1.68950
H         -0.81940       -2.79043       -0.47853
H         -0.26683       -3.29654       -1.93198
H          1.69369       -3.01185       -0.49766
H          1.02850       -1.42886       -0.06248
H          1.24947       -0.67429       -2.43423
H          1.91474       -2.24582       -2.88672
H          3.85043       -1.89705       -1.29644
H          3.19020       -0.32265       -0.84909
H          3.42913        0.44353       -3.25080
H          4.09407       -1.13253       -3.67597
H          5.96151       -0.78817       -1.98648
H          5.33826        0.82909       -1.63949
H          7.51583       -1.81790       -5.40174
H          6.35440       -2.05079       -4.06639
H          8.28374       -1.30312       -2.45766
H          9.38892       -1.61798       -3.83757
H          8.64919       -5.35579       -1.54052
H          7.69500       -5.68344       -2.96712
H          5.57164       -5.59201       -1.56106
H          6.53978       -5.25837       -0.13300
H          6.72330       -7.84263       -1.82630
H          5.93873       -7.69241       -0.24402
H          7.69599       -7.50575       -0.38099
H          7.30267        2.78712       -5.67528
H          4.62138        2.73331       -2.99965
H          5.38271        3.76194       -4.21740
H          7.42610        3.99759       -2.74703
H          6.66246        2.98197       -1.51884
H          4.78096        4.66623       -1.31024
H          5.56640        5.68294       -2.51806
H          7.58886        5.89173       -1.01938
H          6.79168        4.88580        0.18913
H          4.93052        6.59205        0.36321
H          5.75607        7.60091       -0.82141
H          7.74621        7.77417        0.72055
H          6.91220        6.77118        1.90345
H          5.94835        9.53957        0.92598
H          6.67582        9.18742        2.50440
H          5.08239        8.52548        2.09622
