59

C          1.01081        0.33268       -0.06579
C          2.53619        0.22212        0.00465
C          3.02381       -0.84181        0.99472
C          4.54998       -0.94726        1.08157
C          5.03791       -2.01504        2.06615
C          6.56433       -2.11076        2.15980
C          7.05232       -3.20492        3.11464
C          8.57843       -3.29369        3.21151
C          9.06698       -4.43508        4.10990
C         10.59634       -4.49839        4.20997
C         11.07307       -5.69683        5.00816
O         12.52579       -5.65823        5.05220
C         13.08763       -6.76842        5.65126
N         14.57248       -6.58460        5.63220
C         15.13757       -5.44093        5.24615
C         16.53641       -5.35559        5.26433
C         17.30312       -6.42976        5.67242
C         16.56816       -7.60767        6.06401
N         15.22338       -7.66300        6.03896
N         17.17772       -8.74517        6.45305
C         18.80343       -6.35716        5.70911
C         19.37271       -5.76281        7.02635
C         19.12802       -6.59429        8.28644
H          0.69499        1.10038       -0.78545
H          0.58400        0.59951        0.91259
H          0.55459       -0.61961       -0.37506
H          2.96421        1.19988        0.28399
H          2.93636       -0.00602       -0.99790
H          2.60479       -1.82330        0.70999
H          2.61558       -0.62061        1.99689
H          4.96701        0.03367        1.37048
H          4.95827       -1.16386        0.07851
H          4.62880       -2.99729        1.77071
H          4.62358       -1.80554        3.06803
H          6.97272       -1.13597        2.47978
H          6.98038       -2.29577        1.15367
H          6.65100       -4.17957        2.78549
H          6.63187       -3.02963        4.12039
H          8.97913       -2.33528        3.58526
H          9.00168       -3.42468        2.20020
H          8.68221       -5.39253        3.71781
H          8.63409       -4.32205        5.11859
H         10.98118       -3.57893        4.67973
H         11.03574       -4.55074        3.20081
H         10.75642       -6.64314        4.53373
H         10.68506       -5.68026        6.04243
H         12.89437       -7.71337        5.11156
H         12.80387       -6.89237        6.71416
H         14.45994       -4.65161        4.93224
H         17.00844       -4.42821        4.94006
H         18.17431       -8.78434        6.61163
H         16.61039       -9.53528        6.73705
H         19.13276       -5.72323        4.87338
H         19.24450       -7.35005        5.52618
H         18.95755       -4.75136        7.15872
H         20.45389       -5.63268        6.87260
H         18.05896       -6.70897        8.51696
H         19.59458       -6.11416        9.15602
H         19.57139       -7.59898        8.20391
