54

F          2.02627       -0.82935       -2.75814
C          3.37307       -0.57476       -2.55477
C          3.51447        0.87965       -2.09687
N          4.92225        1.16668       -1.83122
C          5.47022        2.39348       -1.75777
N          4.72378        3.49883       -1.80141
C          5.31672        4.84802       -2.03880
C          4.46730        5.61267       -3.03666
C          4.92533        7.05658       -3.24227
O          3.92710        7.67613       -4.02461
C          4.20708        9.04625       -4.31993
C          3.03191        9.58589       -5.12317
O          3.30518       10.94545       -5.40055
C          2.26010       11.57403       -6.13177
O          6.61665        4.67547       -2.54658
C          7.40749        3.85408       -1.68632
N          6.81052        2.50947       -1.63520
C          8.84025        3.76656       -2.23077
C          8.97530        2.83006       -3.41083
C          9.45902        1.52362       -3.22548
C          9.53180        0.62530       -4.29456
C          9.12462        1.00020       -5.58279
C          8.65370        2.31227       -5.76426
C          8.57570        3.21120       -4.70203
C          9.18388        0.03081       -6.73414
H          3.91298       -0.75079       -3.49847
H          3.74328       -1.27231       -1.78356
H          2.89130        1.03685       -1.20059
H          3.15287        1.53855       -2.90096
H          5.51834        0.39544       -1.54359
H          3.71232        3.42286       -1.76793
H          5.35690        5.36854       -1.06181
H          3.42950        5.64120       -2.66583
H          4.46517        5.07442       -3.99607
H          5.90924        7.08920       -3.74812
H          5.03766        7.57128       -2.26479
H          5.14235        9.13654       -4.90277
H          4.32601        9.62830       -3.38726
H          2.09717        9.47596       -4.53812
H          2.91290        9.00111       -6.05701
H          2.56316       12.61526       -6.29001
H          1.30762       11.55448       -5.57137
H          2.10413       11.08859       -7.11244
H          7.39754        4.28558       -0.66995
H          7.36722        1.79747       -2.12272
H          9.49084        3.43698       -1.40791
H          9.14000        4.79243       -2.48557
H          9.82358        1.21505       -2.24160
H          9.93198       -0.37639       -4.12589
H          8.35436        2.63839       -6.76235
H          8.21200        4.22452       -4.87823
H          9.96952       -0.72133       -6.58821
H          9.37339        0.54610       -7.68443
H          8.23016       -0.50905       -6.84189
