78

C          1.34189       11.66150        4.54618
C          2.85795       11.50033        4.67607
C          3.29760       10.04586        4.87139
C          4.81542        9.87697        4.98247
C          5.26726        8.42125        5.13204
C          6.78857        8.26618        5.21192
C          7.26139        6.81290        5.31241
C          8.78599        6.68220        5.36663
C          9.28811        5.23730        5.44407
C         10.81452        5.14886        5.52730
C         11.34581        3.71564        5.63910
C         12.85234        3.63632        5.79908
O         13.19946        4.26629        7.06651
C         14.57341        4.41767        7.28046
P         14.64572        5.59396        8.68967
C         14.03222        7.31619        8.17624
O         13.15801        7.86038        8.79890
O         14.72321        7.71060        7.12125
C         14.42397        9.07753        6.58579
C         15.22908       10.13576        7.31520
C         15.00928       11.52292        6.68986
C         15.78438       12.61763        7.42614
C         13.67434        5.06329       10.11137
C         14.23077        3.80964       10.81183
O         13.39982        3.47092       11.92820
C         13.60893        4.23831       13.06344
O         14.39562        5.16102       13.07241
C         12.76654        3.75085       14.21487
C         12.33064        4.87877       15.16032
C         11.32985        5.84554       14.52365
H          1.05862       12.71315        4.40226
H          0.82417       11.29708        5.44587
H          0.95413       11.09171        3.68870
H          3.22371       12.10652        5.52216
H          3.35066       11.90747        3.77688
H          2.92435        9.43804        4.02833
H          2.81480        9.63643        5.77622
H          5.18668       10.46523        5.84033
H          5.29408       10.31275        4.08762
H          4.88638        7.83294        4.27900
H          4.80500        7.98238        6.03350
H          7.16802        8.83423        6.07994
H          7.24596        8.73322        4.32173
H          6.87610        6.24283        4.44939
H          6.82071        6.34264        6.20879
H          9.16636        7.24429        6.23862
H          9.22277        7.17007        4.47729
H          8.93096        4.67370        4.56536
H          8.84559        4.74112        6.32526
H         11.15513        5.73230        6.39874
H         11.25883        5.63081        4.63848
H         11.08209        3.13948        4.73742
H         10.87138        3.19418        6.48638
H         13.37324        4.17684        4.98757
H         13.21024        2.59270        5.81601
H         15.11387        4.88237        6.43198
H         15.09978        3.48013        7.55465
H         16.00470        5.73399        9.06615
H         13.34150        9.23293        6.67594
H         14.70633        8.98877        5.53033
H         16.29853        9.87547        7.27293
H         14.93424       10.15962        8.37597
H         13.93362       11.76210        6.69715
H         15.31499       11.49859        5.63127
H         15.46581       12.69510        8.47530
H         15.62128       13.59554        6.95547
H         16.86548       12.41872        7.41582
H         12.64862        4.90261        9.74640
H         13.66981        5.91812       10.80514
H         15.26163        3.98487       11.15480
H         14.19633        2.93214       10.15386
H         13.39140        3.01959       14.75653
H         11.90732        3.19019       13.82020
H         13.22274        5.42529       15.49852
H         11.88627        4.41621       16.05312
H         11.76408        6.36186       13.65479
H         11.02097        6.61837       15.23920
H         10.42294        5.32041       14.18938
