37

C          1.07884        0.67320        0.68783
C          2.60089        0.61066        0.83134
C          3.07591       -0.64799        1.56614
C          4.60207       -0.73222        1.70259
C          5.03446       -1.98956        2.43608
O          6.47968       -2.04173        2.49739
C          6.96618       -3.20854        3.13533
C          8.49274       -3.15862        3.02578
P          9.09889       -1.50345        3.47546
C          8.67170       -0.94337        5.10771
C          8.98254       -1.72597        6.23632
C          8.65938       -1.24480        7.50249
C          8.03808        0.00260        7.64290
C          7.73278        0.77727        6.51936
C          8.04995        0.31234        5.24358
Br        11.25562       -1.51443        3.17235
H          0.76430        1.58289        0.15948
H          0.58441        0.67094        1.67022
H          0.69660       -0.18873        0.12170
H          2.95972        1.50365        1.37009
H          3.06901        0.64682       -0.16630
H          2.70711       -1.53931        1.03025
H          2.61231       -0.67929        2.56732
H          4.97722        0.15242        2.24343
H          5.06798       -0.72088        0.70428
H          4.67462       -2.89332        1.91064
H          4.62890       -2.01022        3.46465
H          6.60074       -4.12753        2.64031
H          6.65128       -3.24700        4.19548
H          8.83406       -3.32555        1.99280
H          8.98689       -3.89587        3.67445
H          8.60568       -0.55398        2.55923
H          9.48589       -2.68865        6.13139
H          8.89837       -1.84027        8.38347
H          7.79401        0.37412        8.63860
H          7.24991        1.74759        6.63518
H          7.81470        0.91684        4.36588
