69

N          2.10558        3.18539        1.55579
C          1.70471        1.88590        1.02049
C          2.44776        1.58200       -0.30897
C          3.92840        1.44493       -0.11838
C          4.77228        2.53773       -0.14155
C          6.16030        2.44969        0.11807
C          7.03645        3.58299        0.12788
C          6.49406        4.97194       -0.13007
C          7.48647        6.12646        0.03017
C          6.84551        7.49249       -0.23160
N          7.78955        8.55740        0.07497
C          7.24392        9.90762       -0.13682
C          8.24766       10.98052        0.21141
C          8.06738       11.81781        1.31797
C          8.98564       12.82009        1.64073
C         10.12025       12.99351        0.84557
C         10.32920       12.16958       -0.26181
C          9.39937       11.17389       -0.57449
O          9.57033       10.33489       -1.65807
C          8.37838        3.34638        0.39131
C          8.89815        2.05146        0.64290
C          8.07370        0.95220        0.64975
C          6.68863        1.13969        0.39169
C          5.79845        0.06237        0.41409
N          4.48004        0.20440        0.18704
C          3.63806       -1.01378        0.23819
C          3.47227       -1.65317       -1.15155
O          2.58314       -2.77348       -1.05936
C          1.23795       -2.46143       -1.07091
O          0.84375       -1.31298       -1.10837
C          0.39177       -3.70599       -1.04090
C         -1.06099       -3.44855       -0.62715
C         -1.90077       -4.72702       -0.63589
H          1.91164        3.24891        2.55399
H          1.58732        3.94132        1.10676
H          0.62379        1.78629        0.81732
H          1.95359        1.11759        1.76877
H          2.27681        2.41989       -0.99988
H          1.99613        0.69708       -0.77682
H          4.31836        3.50151       -0.35744
H          5.64054        5.14183        0.54975
H          6.06613        4.99831       -1.14878
H          8.33505        5.99570       -0.66318
H          7.90464        6.13679        1.04905
H          5.96727        7.62026        0.42639
H          6.45695        7.52831       -1.27643
H          8.62363        8.45805       -0.50821
H          6.36432       10.02140        0.51555
H          6.89100       10.05518       -1.18062
H          7.17903       11.67702        1.93736
H          8.81713       13.46041        2.50625
H         10.84896       13.76888        1.08384
H         11.21736       12.29763       -0.88676
H         10.37188       10.60525       -2.13444
H          9.07080        4.18742        0.41197
H          9.96426        1.93781        0.83958
H          8.45905       -0.04745        0.85301
H          6.13911       -0.94991        0.63126
H          2.65981       -0.74843        0.64859
H          4.11778       -1.71931        0.92644
H          4.42651       -2.05951       -1.51072
H          3.08987       -0.92042       -1.87627
H          0.88199       -4.44563       -0.38905
H          0.43569       -4.14149       -2.05559
H         -1.49992       -2.69992       -1.30250
H         -1.07472       -2.99626        0.37698
H         -1.92668       -5.18576       -1.63483
H         -2.93690       -4.51575       -0.34183
H         -1.50438       -5.47692        0.06416
