130

C          6.97599        1.72954       -4.30009
C          7.71285        0.54378       -3.67224
C          6.91931       -0.13697       -2.55161
C          7.64350       -1.33000       -1.91920
C          6.84088       -2.00804       -0.80455
C          7.55499       -3.21004       -0.17687
C          6.75142       -3.85920        0.95399
C          7.47344       -5.06842        1.56278
N          6.76495       -5.64254        2.71844
C          5.88201       -6.65435        2.62332
S          5.05459       -7.29419        3.94028
S          5.68005       -7.27546        0.94670
C          4.51425       -8.64031        1.19341
C          3.04212       -8.18916        1.33722
C          2.34882       -9.10209        2.34388
N          0.94410       -8.70504        2.80712
C         -0.05809       -8.71725        1.63028
C         -0.75158       -7.35021        1.62005
C         -0.48979       -6.75739        3.01083
C          0.91948       -7.24325        3.34157
C          1.43933       -7.11145        4.76692
C          1.69825       -5.64184        5.12196
C          2.02183       -5.40145        6.59933
C          0.82237       -5.02727        7.55876
C         -0.39023       -6.01479        7.79720
C         -0.21300       -7.44437        8.45267
C          0.39687       -7.64406        9.89835
C         -0.25535       -6.98858       11.18095
C         -1.74637       -7.30826       11.60619
C         -2.16493       -8.80432       11.86436
F         -1.28207       -9.42582       12.66223
F         -3.37006       -8.80944       12.45616
F         -2.25987       -9.48357       10.70373
F         -1.93252       -6.63700       12.76947
F         -2.58967       -6.79741       10.67177
F          0.54932       -7.35626       12.20934
F         -0.18370       -5.64017       11.04250
F          0.41670       -8.99143       10.09201
F          1.67866       -7.20544        9.85844
F         -1.44746       -8.01016        8.42590
F          0.58908       -8.18480        7.62823
F         -1.30024       -5.33974        8.53259
F         -0.95697       -6.26180        6.56653
F          1.33263       -4.70269        8.76907
F          0.24216       -3.90926        7.02437
F          2.69695       -6.46030        7.14599
F          2.85191       -4.31185        6.68600
C          0.58192       -9.76502        3.85676
C         -0.73096       -9.67811        4.64409
O         -1.80438       -9.79291        3.71835
C         -3.10929       -9.42594        4.23158
C         -3.85710       -8.71505        3.13609
C         -4.17725       -7.35637        3.25643
C         -4.81620       -6.68086        2.21261
C         -5.13334       -7.36163        1.03482
C         -4.82350       -8.72035        0.90869
C         -4.19446       -9.39520        1.95538
C         -0.72511      -10.79143        5.69897
C          7.08283       -5.03289        4.02332
C          8.24486       -5.73415        4.73609
C          8.63432       -5.02707        6.03807
C          9.77934       -5.72677        6.77868
C         10.24343       -4.98301        8.03532
C         11.37716       -5.69613        8.78001
C         11.90196       -4.92220        9.99463
C         13.03567       -5.64344       10.72849
H          7.56782        2.19407       -5.10061
H          6.76195        2.50784       -3.55220
H          6.01498        1.41804       -4.73616
H          8.68418        0.88212       -3.27385
H          7.94968       -0.19952       -4.45212
H          5.94414       -0.47100       -2.94862
H          6.68642        0.60604       -1.76821
H          8.61602       -0.99618       -1.51692
H          7.87988       -2.07138       -2.70261
H          5.86476       -2.33370       -1.20481
H          6.61282       -1.26806       -0.01745
H          8.53843       -2.89135        0.21007
H          7.76513       -3.96051       -0.95889
H          5.76486       -4.17842        0.58153
H          6.56136       -3.11549        1.74537
H          8.47574       -4.77947        1.91321
H          7.62777       -5.85429        0.80841
H          4.85281       -9.17969        2.08957
H          4.66271       -9.28537        0.31660
H          2.54656       -8.18615        0.35611
H          3.05472       -7.15749        1.70570
H          2.97129       -9.13287        3.24848
H          2.25116      -10.12519        1.95471
H         -0.76376       -9.52874        1.81916
H          0.50696       -8.92107        0.71579
H         -1.82174       -7.45784        1.40962
H         -0.31619       -6.70445        0.84499
H         -1.22703       -7.10798        3.74269
H         -0.53245       -5.66157        3.00255
H          1.61051       -6.71265        2.67428
H          2.39308       -7.64745        4.86819
H          0.73309       -7.55510        5.47002
H          0.85312       -4.99397        4.85375
H          2.57776       -5.28252        4.56759
H          1.41312       -9.77780        4.57097
H          0.59495      -10.71652        3.30718
H         -0.81375       -8.70927        5.16593
H         -2.99453       -8.76404        5.10696
H         -3.63514      -10.33817        4.56032
H         -3.93329       -6.82439        4.17905
H         -5.07108       -5.62604        2.32085
H         -5.63486       -6.83948        0.21928
H         -5.08589       -9.25591       -0.00446
H         -3.96340      -10.45771        1.85859
H         -0.65226      -11.78055        5.22600
H         -1.65168      -10.75931        6.28558
H          0.10925      -10.66855        6.40264
H          6.17636       -5.06578        4.64189
H          7.32906       -3.97804        3.82938
H          9.11754       -5.77480        4.06298
H          7.95556       -6.77616        4.94249
H          7.75326       -4.96327        6.69984
H          8.92535       -3.98487        5.81750
H         10.63616       -5.84715        6.09282
H          9.46471       -6.74935        7.05083
H          9.38655       -4.84242        8.71746
H         10.57462       -3.96796        7.75336
H         12.21182       -5.88059        8.08060
H         11.03114       -6.69378        9.10355
H         11.06982       -4.73376       10.69430
H         12.24989       -3.92817        9.66606
H         12.70742       -6.62263       11.10838
H         13.39667       -5.05936       11.58591
H         13.89374       -5.81945       10.06261
