69

C         10.98209       -3.77928        6.80752
C         10.51845       -3.11948        5.50725
C         10.89897       -1.63871        5.42219
C         10.47168       -0.95704        4.11926
C         10.85597        0.52390        4.06949
C         10.50377        1.22635        2.75521
C         10.90530        2.70377        2.75643
C         10.71270        3.41671        1.41539
C         11.15273        4.88390        1.46745
C         11.17672        5.56610        0.09681
C         11.55640        7.05656        0.13173
C         12.95424        7.25880        0.75988
P         13.61157        8.93566        0.53980
C         12.52454       10.17495        1.51463
C         12.33610        9.98054        3.03414
F         11.67644        8.81039        3.25862
F         13.57549        9.89727        3.61238
F         13.10352       11.40673        1.31972
F         11.29422       10.19406        0.92370
C         15.32953        9.30331        1.07342
C         16.07406        8.62074       -0.06826
O         15.30067        8.01705       -0.85816
N         17.40245        8.68207       -0.19645
C         18.05850        8.02358       -1.35044
C         18.96547        6.85163       -0.96135
C         18.24479        5.67951       -0.28728
C         19.19307        4.52597        0.04676
C         18.27212        9.38989        0.74126
H         10.68977       -4.83722        6.85156
H         10.54828       -3.27695        7.68501
H         12.07681       -3.73179        6.90812
H          9.42432       -3.21913        5.41038
H         10.94963       -3.65602        4.64533
H         11.99280       -1.53913        5.54020
H         10.45383       -1.10088        6.27798
H          9.38013       -1.05866        3.99008
H         10.92956       -1.48401        3.26377
H         11.94238        0.61982        4.24483
H         10.36840        1.05306        4.90715
H          9.42138        1.13581        2.56068
H         11.00816        0.71028        1.91950
H         11.96804        2.78334        3.04826
H         10.33731        3.23499        3.54007
H          9.65686        3.35774        1.10175
H         11.29234        2.88970        0.63756
H         12.15862        4.92004        1.92211
H         10.48825        5.44372        2.14870
H         10.18378        5.48984       -0.37353
H         11.87308        5.03140       -0.57096
H         10.80617        7.62085        0.70355
H         11.54913        7.45433       -0.89500
H         13.69740        6.60135        0.28823
H         12.94640        7.06097        1.84198
H         13.34226        9.48647       -0.72706
H         11.77587       10.81848        3.47952
H         15.51874        8.86431        2.06395
H         15.47171       10.39037        1.15291
H         18.64062        8.80039       -1.87036
H         17.25775        7.68884       -2.02016
H         19.79391        7.20256       -0.32397
H         19.44029        6.50503       -1.89321
H         17.43809        5.32265       -0.94825
H         17.75266        6.02679        0.63770
H         19.66952        4.12844       -0.86059
H         18.65969        3.69810        0.53182
H         19.99387        4.85046        0.72702
H         17.68624        9.94901        1.47656
H         18.90688       10.09691        0.18882
H         18.92100        8.68334        1.27680
