43

C          0.82953       -0.17654       -0.13042
C          2.35278       -0.05208       -0.21463
C          2.92275        1.06130        0.67273
C          4.44774        1.18619        0.58857
C          5.02680        2.29788        1.47136
C          6.55234        2.41024        1.37325
C          7.14780        3.52046        2.24821
C          8.67610        3.60016        2.13900
C          9.32558        4.79657        2.86279
P          9.00546        4.89101        4.65129
C          9.40081        3.33437        5.52553
C          9.00293        3.42231        6.97541
C          7.91818        2.82692        7.47803
C          9.84610        6.29064        5.37763
C          9.19227        7.23170        6.06989
H          0.45668       -0.97921       -0.78084
H          0.33344        0.75593       -0.43789
H          0.50169       -0.40249        0.89519
H          2.65028        0.13182       -1.26088
H          2.81750       -1.01244        0.06606
H          2.62648        0.87904        1.72117
H          2.45985        2.02372        0.39164
H          4.74079        1.36679       -0.46040
H          4.90845        0.22251        0.86813
H          4.73767        2.11790        2.52219
H          4.56950        3.26303        1.19196
H          6.83921        2.59085        0.32317
H          7.00980        1.44431        1.64953
H          6.84270        3.34334        3.29708
H          6.70574        4.49128        1.96358
H          8.96193        3.69069        1.07955
H          9.13377        2.66039        2.48720
H          8.97001        5.75837        2.45743
H         10.42227        4.79026        2.75267
H          7.62889        5.11965        4.87020
H         10.47970        3.15549        5.39039
H          8.85709        2.53633        4.99726
H          9.65633        4.01273        7.62220
H          7.24968        2.22112        6.86189
H          7.66948        2.90956        8.53543
H         10.92811        6.33238        5.22691
H          8.11242        7.20123        6.22797
H          9.72508        8.07786        6.50645
