82

C         15.01384        3.12043       -7.25117
C         14.06275        2.52457       -6.21034
C         14.73242        1.49311       -5.29516
C         13.77958        0.86431       -4.27388
C         14.44919       -0.17419       -3.36816
C         13.47973       -0.86566       -2.40454
C         14.15247       -1.90640       -1.50377
C         13.16752       -2.68846       -0.62919
C         13.84724       -3.72850        0.26725
C         12.85819       -4.59805        1.04909
C         13.54689       -5.64016        1.93703
C         12.54585       -6.52443        2.69014
C         13.23209       -7.57822        3.57367
C         13.90423       -8.73052        2.78769
C         15.24288       -9.21450        3.34433
C         15.90455      -10.29839        2.48813
C         17.26467      -10.74956        3.02684
N         17.81452      -11.79776        2.18251
C         19.10773      -12.31745        2.66108
C         19.69919      -13.31901        1.70057
C         19.79866      -14.67668        2.02376
C         20.36709      -15.60243        1.14606
C         20.84731      -15.17005       -0.09129
C         20.75431      -13.82308       -0.44405
C         20.18453      -12.90832        0.44484
O         20.06589      -11.56833        0.13170
S         12.65778      -10.12200        2.80676
C         11.86305       -9.42415        4.12323
N         12.23331       -8.21844        4.47794
C         11.72662       -7.53891        5.67287
C         12.57316       -7.89452        6.90406
C         12.08164       -7.08997        8.12838
F         10.75774       -7.24175        8.34179
F         12.73669       -7.50427        9.23790
F         12.33511       -5.77049        7.95216
O         12.43777       -9.28496        7.09837
H         14.50377        3.85311       -7.89136
H         15.42875        2.33947       -7.90594
H         15.86175        3.63211       -6.77184
H         13.20703        2.05169       -6.72172
H         13.63513        3.33336       -5.59395
H         15.57658        1.96935       -4.76557
H         15.17886        0.69464       -5.91426
H         12.93751        0.38997       -4.80854
H         13.33107        1.65841       -3.65137
H         15.25882        0.30839       -2.79286
H         14.94073       -0.93933       -3.99484
H         12.67906       -1.35412       -2.98762
H         12.97671       -0.10822       -1.77838
H         14.90141       -1.40909       -0.86280
H         14.71796       -2.61773       -2.13146
H         12.43104       -3.19387       -1.27839
H         12.58796       -1.98725       -0.00391
H         14.52738       -3.21932        0.97193
H         14.48709       -4.37969       -0.35417
H         12.18423       -5.11097        0.34135
H         12.21237       -3.95653        1.67319
H         14.20305       -5.13270        2.66509
H         14.21033       -6.26133        1.31083
H         11.86757       -7.03358        1.98508
H         11.91027       -5.88361        3.32200
H         13.99044       -7.09390        4.21080
H         14.00820       -8.44798        1.73114
H         15.10878       -9.56609        4.38194
H         15.90017       -8.32848        3.39575
H         16.03025       -9.91709        1.45968
H         15.25632      -11.18719        2.41465
H         17.13979      -11.16076        4.04391
H         17.93398       -9.86345        3.13049
H         17.95415      -11.43564        1.23635
H         18.93853      -12.80851        3.63195
H         19.83971      -11.49966        2.83531
H         19.42551      -15.00911        2.99462
H         20.43779      -16.65282        1.42688
H         21.29585      -15.87828       -0.78847
H         21.12380      -13.47837       -1.41361
H         20.48744      -11.41361       -0.72900
H         11.07546       -9.95008        4.66443
H         10.68943       -7.85374        5.84562
H         11.73787       -6.45738        5.49248
H         13.62742       -7.59658        6.74836
H         12.95862       -9.55926        7.87203
