64

C          6.80385        6.55271       -1.95131
C          7.98598        5.70979       -1.46584
C          7.85063        5.25546       -0.00745
C          9.04072        4.42617        0.48648
C          8.89474        3.93508        1.93104
C         10.11462        3.15047        2.42641
C          9.95781        2.61814        3.85681
C         11.18663        1.85961        4.32907
O         10.93135        1.33245        5.64801
C         12.06906        0.71357        6.26309
C         11.69972        0.21130        7.66805
C         11.02999        1.32156        8.49030
N          9.63487        1.58222        7.96704
C          8.97133        2.79582        8.58631
C          9.63613        4.08060        8.18592
C          9.11021        4.90729        7.27772
C          8.78232        0.34011        8.08466
C          9.39763       -0.81747        7.30455
C         10.86499       -1.09720        7.69905
C         10.97021       -1.80225        9.06749
C         10.46038       -3.25598        9.06379
C          9.74666       -3.64194       10.37753
C          8.54447       -2.84661       10.60094
C          7.54560       -2.17636       10.74651
H          6.92679        6.84924       -3.00185
H          6.69879        7.47302       -1.35741
H          5.85651        5.99852       -1.87245
H          8.92036        6.28531       -1.58056
H          8.09738        4.82232       -2.11174
H          6.92127        4.66952        0.10630
H          7.72903        6.14183        0.64044
H          9.96350        5.02592        0.39678
H          9.18164        3.55654       -0.17907
H          7.99481        3.30042        2.01140
H          8.71855        4.79850        2.59663
H         11.00838        3.79513        2.36972
H         10.30573        2.30576        1.74295
H          9.08342        1.94775        3.90899
H          9.76468        3.45493        4.54962
H         12.07213        2.52012        4.37098
H         11.42187        1.01945        3.65117
H         12.89015        1.45199        6.33273
H         12.42601       -0.12769        5.64213
H         12.66125        0.00274        8.16523
H         11.58871        2.26234        8.41239
H         10.93471        1.05592        9.55192
H          9.79674        1.76426        6.94594
H          8.97970        2.64080        9.67546
H          7.92821        2.77913        8.24344
H         10.57054        4.34657        8.68617
H          8.16275        4.68780        6.77961
H          9.59880        5.84408        7.01073
H          7.78837        0.59716        7.69590
H          8.68272        0.11341        9.15639
H          9.32916       -0.60686        6.22842
H          8.77069       -1.69967        7.49507
H         11.29368       -1.77027        6.93821
H         10.40196       -1.23508        9.82295
H         12.01824       -1.78394        9.40443
H         11.29634       -3.94878        8.89235
H          9.75362       -3.41705        8.23569
H         10.43048       -3.52102       11.23424
H          9.47172       -4.70824       10.35338
H          6.63681       -1.63905       10.92014
