54

N          1.41449        0.21015        0.59924
C          2.82055        0.04387        0.23374
C          3.25969        1.17212       -0.70675
C          4.75117        1.09380       -1.04689
C          5.19438        2.23590       -1.98219
P          6.99918        2.28014       -2.17421
C          7.61630        0.79370       -3.02238
C          9.15262        0.72547       -2.97477
O          9.54469        0.96364       -1.64338
Si        11.13128        0.82657       -1.02725
C         10.89918        0.59956        0.80921
C         11.96288       -0.64698       -1.83777
C         12.04118        2.42201       -1.42489
C          7.59868        3.77686       -3.02920
C          7.08978        5.12533       -2.47560
C          7.24769        5.34008       -0.96133
C          8.70372        5.28169       -0.45896
S          8.75626        4.53518        1.17927
O          8.15029        5.41492        2.15075
O          8.31905        3.16078        1.03426
O         10.35220        4.47386        1.45191
H          1.16774       -0.39634        1.38060
H          0.79919       -0.04502       -0.17418
H          3.06041       -0.93377       -0.23469
H          3.41476        0.09911        1.15989
H          3.02726        2.13562       -0.22631
H          2.66347        1.13197       -1.63461
H          4.97408        0.12056       -1.51289
H          5.33896        1.13674       -0.11438
H          4.89803        3.21176       -1.56534
H          4.73485        2.15850       -2.97985
H          7.54322        2.28301       -0.86962
H          7.22983        0.78815       -4.05261
H          7.18462       -0.06525       -2.48748
H          9.58927        1.46595       -3.67286
H          9.46318       -0.27282       -3.32952
H         10.39312       -0.35004        1.03009
H         10.30329        1.41576        1.23785
H         11.87432        0.58682        1.31699
H         11.37627       -1.56625       -1.69914
H         12.94723       -0.81501       -1.37726
H         12.13052       -0.50074       -2.91406
H         11.59191        3.27618       -0.89890
H         12.05262        2.63554       -2.50356
H         13.08899        2.35494       -1.09742
H          7.32274        3.67177       -4.08943
H          8.69736        3.70701       -2.98692
H          6.02667        5.24413       -2.73131
H          7.61891        5.91808       -3.02606
H          6.64445        4.59545       -0.41770
H          6.81446        6.31222       -0.69411
H          9.16633        6.27374       -0.38517
H          9.35294        4.64241       -1.07352
H         10.56356        5.13840        2.13701
