94

C          0.90042        0.81513       -0.37722
C          2.37603        0.74089        0.02342
C          2.82001       -0.66015        0.45917
C          4.30080       -0.74414        0.84241
C          4.75058       -2.14214        1.27979
C          6.24329       -2.22668        1.61412
C          6.70410       -3.61838        2.06056
C          8.21424       -3.71076        2.30332
C          8.68801       -5.09372        2.76353
C         10.20949       -5.19757        2.91075
C         10.70088       -6.57133        3.38040
C         12.22820       -6.67703        3.44345
C         12.74757       -8.03038        3.94225
C         14.27707       -8.12526        3.92504
C         14.84000       -9.43487        4.48955
C         16.36843       -9.50817        4.40036
C         16.98831      -10.74164        5.06752
C         18.51498      -10.77770        4.93118
C         19.20154      -11.86523        5.76801
C         20.72921      -11.82899        5.62101
C         21.49118      -12.65821        6.64962
C         23.02232      -12.54256        6.54554
N         23.49212      -13.88700        6.93380
C         22.47871      -14.77090        6.81411
N         22.50168      -16.09600        7.00204
C         23.62074      -17.05244        6.92415
C         23.07518      -18.41776        7.32798
O         21.91615      -18.63107        6.52902
C         21.12584      -19.74812        6.90250
C         19.75731      -19.56815        6.25100
F         19.83766      -19.52394        4.90366
F         18.94280      -20.58550        6.59833
F         19.17366      -18.40336        6.66026
N         21.33672      -14.12197        6.49573
C         24.89359      -14.12835        7.22861
C         25.82254      -14.49213        6.08862
C         25.65308      -14.74195        4.78770
Br        24.01968      -14.74863        3.81973
Br        27.61503      -14.61273        6.74458
H          0.61482        1.83149       -0.68234
H          0.24456        0.52230        0.45641
H          0.68113        0.14202       -1.21968
H          2.57249        1.45400        0.84211
H          3.00393        1.07283       -0.82101
H          2.61299       -1.37673       -0.35566
H          2.20056       -0.98943        1.31244
H          4.50969       -0.02385        1.65328
H          4.91587       -0.41686       -0.01479
H          4.51599       -2.86720        0.48035
H          4.15836       -2.45943        2.15639
H          6.48432       -1.49223        2.40295
H          6.82836       -1.91832        0.72933
H          6.41385       -4.36116        1.29642
H          6.16413       -3.90605        2.97997
H          8.51245       -2.95526        3.05163
H          8.74479       -3.43715        1.37396
H          8.34080       -5.85578        2.04342
H          8.20568       -5.34593        3.72433
H         10.56244       -4.42478        3.61651
H         10.68184       -4.95584        1.94205
H         10.30959       -7.35071        2.70287
H         10.27378       -6.79373        4.37415
H         12.62234       -5.87696        4.09483
H         12.64394       -6.47715        2.43988
H         12.32314       -8.83926        3.32196
H         12.37770       -8.20944        4.96721
H         14.69866       -7.27928        4.49641
H         14.63431       -7.99294        2.88843
H         14.39742      -10.29184        3.95234
H         14.52648       -9.54273        5.54289
H         16.79927       -8.60236        4.86262
H         16.67112       -9.47492        3.33902
H         16.55355      -11.66032        4.63708
H         16.71600      -10.74842        6.13774
H         18.92427       -9.79799        5.23420
H         18.78734      -10.90200        3.86908
H         18.81126      -12.85671        5.47735
H         18.93213      -11.72342        6.82947
H         21.07150      -10.78717        5.74202
H         21.03240      -12.14129        4.60855
H         21.15961      -12.37448        7.66549
H         23.43498      -11.78830        7.22654
H         23.34113      -12.31480        5.51473
H         21.61921      -16.57379        6.80116
H         24.43062      -16.78526        7.61064
H         24.01563      -17.08913        5.89790
H         22.80805      -18.43275        8.40127
H         23.84347      -19.18869        7.14583
H         20.97853      -19.79956        7.99514
H         21.56299      -20.69776        6.55035
H         20.43212      -14.57598        6.56875
H         24.98205      -14.88761        8.01872
H         25.27859      -13.20442        7.68715
H         26.49398      -14.98245        4.14179
