89

C          0.52926        0.94044       -1.07037
C          2.02770        0.78771       -0.79639
C          2.54690       -0.63767       -1.01758
C          4.03954       -0.80043       -0.71352
C          4.56719       -2.22198       -0.93622
C          6.04444       -2.38943       -0.56552
C          6.58320       -3.80661       -0.78870
C          8.04036       -3.98143       -0.34797
C          8.58969       -5.39438       -0.57191
C         10.01414       -5.58462       -0.03992
C         10.57425       -6.99354       -0.26542
C         11.93979       -7.21305        0.39365
C         12.50907       -8.62006        0.17573
C         13.82397       -8.84440        0.93098
C         14.39063      -10.24966        0.71503
N         15.56438      -10.44502        1.57971
C         16.68479      -11.09017        1.28289
N         16.77360      -12.00369        0.26923
C         15.72241      -13.05321        0.13927
C         15.65954      -13.99423        1.34487
C         14.56344      -15.06709        1.17743
C         14.48105      -15.93969        2.33951
C         14.43598      -16.64719        3.31892
C         18.13380      -12.40024       -0.07391
O         18.84254      -12.78094        1.10440
C         19.07636      -11.65728        1.88563
N         17.82222      -10.82878        2.02043
C         17.85900       -9.81755        2.96919
N         16.87787       -9.09369        3.43087
N         17.42098       -8.26915        4.40986
C         18.69670       -8.54624        4.46557
O         19.05390       -9.55155        3.55355
S         19.88331       -7.76368        5.44155
C         21.21052       -9.03190        5.55345
C         22.27116       -8.50494        6.52288
C         23.44190       -9.48634        6.67746
C         24.51214       -8.97416        7.64446
H          0.19079        1.97230       -0.90344
H         -0.06504        0.28588       -0.41531
H          0.28389        0.67474       -2.10962
H          2.24537        1.09437        0.24103
H          2.59333        1.48294       -1.43984
H          2.34838       -0.94028       -2.06112
H          1.96886       -1.33689       -0.38725
H          4.22949       -0.50329        0.33314
H          4.61864       -0.09493       -1.33525
H          4.41774       -2.50736       -1.99251
H          3.96228       -2.93171       -0.34439
H          6.18407       -2.11113        0.49412
H          6.65159       -1.67289       -1.14648
H          6.48661       -4.07187       -1.85623
H          5.95057       -4.52738       -0.24103
H          8.12611       -3.72507        0.72289
H          8.67564       -3.25348       -0.88259
H          8.56259       -5.63248       -1.64980
H          7.92170       -6.12645       -0.08431
H         10.02628       -5.35953        1.04108
H         10.68520       -4.84400       -0.50952
H         10.64827       -7.19224       -1.34888
H          9.85902       -7.73605        0.13017
H         11.85163       -7.02277        1.47742
H         12.65809       -6.46623        0.01289
H         12.66306       -8.79268       -0.90350
H         11.76812       -9.36939        0.50427
H         13.65559       -8.68774        2.01020
H         14.57454       -8.09975        0.62001
H         14.69414      -10.39458       -0.33215
H         13.62576      -11.00606        0.95774
H         15.63250       -9.82196        2.41276
H         15.95903      -13.59783       -0.78496
H         14.75186      -12.57289       -0.03090
H         15.45197      -13.41401        2.25752
H         16.63050      -14.48686        1.49615
H         14.76333      -15.67308        0.27730
H         13.58454      -14.58474        1.01189
H         14.38276      -17.28689        4.17500
H         18.65106      -11.56775       -0.58149
H         18.09776      -13.27487       -0.72927
H         19.85292      -10.99993        1.45505
H         19.37722      -11.99821        2.88372
H         21.63255       -9.19588        4.55285
H         20.76348       -9.96630        5.92003
H         21.81107       -8.32030        7.50705
H         22.64923       -7.53312        6.16479
H         23.89381       -9.67358        5.68920
H         23.05665      -10.45758        7.03014
H         24.94409       -8.02488        7.29624
H         25.33269       -9.69682        7.74350
H         24.09656       -8.80346        8.64809
