42

C          7.58996       -1.22138        3.04799
O          6.97243       -0.12425        2.38360
C          7.14587       -0.17608        0.97950
C          6.39843        0.97418        0.34178
O          6.99845        2.20277        0.77206
C          6.43824        3.36242        0.20246
C          6.91787        4.54596        1.04227
N          8.38383        4.53906        1.19979
C          9.05875        3.82261        2.16971
C         10.39034        4.04273        1.97575
N         10.51018        4.88928        0.88658
C          9.27722        5.17473        0.41156
C          8.94960        6.08767       -0.73490
C          8.45445        7.37929       -0.26403
C          8.04649        8.43611        0.15538
C         11.78522        5.33851        0.30905
C         12.30068        4.36751       -0.77711
C         13.41336        4.97300       -1.55579
C         14.69849        4.59678       -1.55207
F         15.15392        3.58991       -0.81416
F         15.64574        5.16113       -2.27110
F         13.05066        6.02459       -2.34117
H          7.39473       -1.09682        4.11924
H          8.68225       -1.23646        2.87684
H          7.16767       -2.18605        2.71423
H          6.74871       -1.12315        0.56253
H          8.22150       -0.12060        0.71361
H          5.33566        0.95466        0.64322
H          6.45587        0.88073       -0.75858
H          5.33226        3.35312        0.23355
H          6.74065        3.47640       -0.85903
H          6.49721        4.48414        2.05328
H          6.61456        5.50561        0.60565
H          8.53431        3.20623        2.88933
H         11.25527        3.67711        2.51557
H          8.20477        5.60284       -1.38703
H          9.84303        6.22536       -1.36202
H          7.69087        9.38453        0.50471
H         12.50522        5.42392        1.13198
H         11.63999        6.34571       -0.09999
H         11.47739        4.12153       -1.46942
H         12.63248        3.42545       -0.32130
