74

C          2.96574       -0.24889        2.10506
C          2.97761        0.02648        0.59957
C          4.38481        0.24354        0.03052
C          4.41078        0.35815       -1.49689
C          5.80111        0.64605       -2.07690
C          5.85210        0.45916       -3.59664
C          7.20355        0.83349       -4.23291
C          7.28153        0.22404       -5.62315
O          8.34756        0.78885       -6.48617
C          9.59601        0.38819       -6.28455
O         10.02778       -0.29392       -5.37604
C         10.45438        0.88152       -7.45641
S         12.23107        0.83816       -7.05324
C         12.57428       -0.96872       -6.91796
C         14.06062       -1.34583       -6.82852
O         14.81273       -1.06121       -8.02751
C         14.47693       -1.77463       -9.16214
O         13.51176       -2.50489       -9.22001
C         15.45886       -1.49464      -10.27000
S         16.62768       -2.89436      -10.43614
C         14.77290       -0.63723       -5.66807
O         16.19184       -0.81947       -5.66879
C         16.64339       -2.05165       -5.26884
O         15.90817       -2.95674       -4.93998
C         18.15095       -2.10439       -5.32181
S         18.73566       -2.61910       -6.98141
C         12.96332        1.25735       -8.66671
C         12.75207        2.70217       -9.12628
O         13.50144        2.75085      -10.31710
C         13.41633        3.99457      -11.03023
C         14.16627        3.79436      -12.34104
O         14.15013        5.02881      -13.02438
C         14.80524        4.96012      -14.28734
H          1.94164       -0.37198        2.48278
H          3.43086        0.57342        2.66876
H          3.52000       -1.16864        2.34504
H          2.35746        0.91151        0.37832
H          2.49939       -0.81518        0.06991
H          5.03487       -0.59492        0.33764
H          4.82701        1.14902        0.48177
H          3.70988        1.14609       -1.82313
H          4.02618       -0.58257       -1.92940
H          6.54151       -0.02654       -1.61018
H          6.11053        1.67137       -1.81136
H          5.05321        1.05045       -4.07492
H          5.62073       -0.59704       -3.82145
H          8.03421        0.46332       -3.61470
H          7.30111        1.92853       -4.29697
H          6.37907        0.43811       -6.20832
H          7.44042       -0.86229       -5.57995
H         10.22171        1.92605       -7.70186
H         10.27481        0.25958       -8.34604
H         12.10623       -1.46449       -7.77687
H         12.04724       -1.24526       -5.99454
H         14.06717       -2.43533       -6.66416
H         15.99895       -0.55482      -10.11201
H         14.91373       -1.45894      -11.22071
H         17.30051       -2.64305       -9.27952
H         14.33923       -0.99673       -4.72211
H         14.64866        0.45344       -5.72987
H         18.52170       -2.80208       -4.56387
H         18.58394       -1.11089       -5.15748
H         18.34398       -3.91168       -6.87530
H         12.58294        0.54703       -9.41397
H         14.03699        1.07865       -8.52647
H         13.12355        3.42125       -8.36913
H         11.68404        2.92717       -9.31645
H         13.87669        4.80902      -10.44379
H         12.36070        4.25502      -11.22534
H         13.67504        2.99758      -12.93500
H         15.20266        3.46272      -12.12914
H         14.75185        5.96197      -14.72729
H         14.30616        4.23999      -14.96044
H         15.86487        4.66828      -14.17525
