39

C          0.75742        1.64000       -1.36265
C          2.23704        1.81371       -1.71102
C          3.09560        2.19891       -0.50015
C          4.58182        2.36473       -0.84878
C          5.39286        2.74391        0.37759
O          6.84272        2.79762        0.07154
C          7.32256        3.95444       -0.35770
O          6.71183        4.99471       -0.53667
C          8.83417        3.86596       -0.60638
P          9.41988        5.54231       -1.00218
C         11.21877        5.68261       -0.79270
C         11.78192        7.10193       -0.99906
C         11.09578        8.20706       -0.15695
C         10.84640        7.81545        1.22468
C         10.62048        7.43837        2.35308
C          8.95315        6.02001       -2.59314
C          8.66627        6.37365       -3.71664
H          0.16981        1.36610       -2.24884
H          0.32942        2.56721       -0.95437
H          0.61281        0.84914       -0.61212
H          2.34618        2.58501       -2.49184
H          2.62712        0.87975       -2.14896
H          2.98475        1.43005        0.28379
H          2.71137        3.13736       -0.06480
H          4.69722        3.14227       -1.62061
H          4.97630        1.42508       -1.26726
H          5.33492        1.98071        1.16281
H          5.09909        3.72018        0.78448
H          9.06582        3.18559       -1.43870
H          9.37243        3.50203        0.28203
H          8.79482        6.42001       -0.09341
H         11.68931        4.96057       -1.47600
H         11.39756        5.34251        0.24127
H         11.73055        7.37999       -2.06103
H         12.84727        7.05082       -0.73403
H         10.14305        8.51192       -0.62478
H         11.72761        9.10830       -0.17993
H         10.44300        7.16088        3.37227
H          8.40293        6.68677       -4.71008
