65

C          5.20230       -6.76177       -0.69077
C          3.95785       -5.92019       -0.90173
O          4.28679       -4.65248       -1.57211
C          4.61452       -3.62100       -0.77879
O          4.63614       -3.62793        0.43664
C          5.00805       -2.39512       -1.59726
C          6.47614       -2.50684       -2.06010
O          7.33194       -3.11558       -1.06656
C          7.58101       -2.13411       -0.11858
N          7.86757       -0.87161       -0.95978
C          7.20923       -1.16496       -2.32685
C          6.37977        0.01438       -2.82410
C          7.13914        1.32399       -3.13637
C          8.13139        1.17237       -4.29764
C          6.12682        2.44277       -3.41900
C          9.33877       -0.52479       -1.04517
C          9.82394        0.16907        0.22086
C         11.32118        0.55298        0.17223
C         11.61500        1.55230       -0.96426
C         13.10309        1.90816       -1.15518
C         13.33085        2.67403       -2.42819
C         13.64341        3.97613       -2.56517
C         13.85013        4.93206       -1.42017
C         13.82729        4.58068       -3.93265
C         11.75220        1.08284        1.54678
H          4.91525       -7.72754       -0.25243
H          5.90316       -6.27336       -0.00187
H          5.71359       -6.96052       -1.64187
H          3.45457       -5.68454        0.04414
H          3.24937       -6.39779       -1.58854
H          4.83347       -1.52443       -0.95247
H          4.36792       -2.29671       -2.48396
H          6.53940       -3.16128       -2.93793
H          8.46410       -2.40162        0.47133
H          6.71844       -1.91704        0.53315
H          7.38511       -0.06848       -0.53394
H          8.04947       -1.37312       -3.00175
H          5.58024        0.22767       -2.09475
H          5.86311       -0.32251       -3.73874
H          7.70655        1.62736       -2.23441
H          7.60702        0.90468       -5.22722
H          8.89694        0.40222       -4.12034
H          8.66300        2.11578       -4.47735
H          5.51984        2.20942       -4.30659
H          6.63883        3.39483       -3.60909
H          5.44094        2.59388       -2.57342
H          9.45566        0.11941       -1.92291
H          9.86591       -1.46955       -1.24160
H          9.65414       -0.47870        1.09682
H          9.22544        1.08486        0.38317
H         11.89382       -0.37143       -0.03042
H         11.04441        2.48237       -0.79229
H         11.25213        1.14824       -1.92493
H         13.68815        0.97142       -1.18625
H         13.47093        2.47046       -0.28628
H         13.21085        2.08860       -3.34771
H         13.67999        4.48256       -0.43499
H         13.17832        5.79966       -1.51649
H         14.87538        5.33481       -1.43446
H         13.67514        3.84312       -4.73103
H         14.83985        5.00108       -4.04352
H         13.12720        5.41634       -4.09399
H         11.24604        2.03189        1.78170
H         12.83295        1.26491        1.58380
H         11.51406        0.36661        2.34576
