94

N          5.31501       -4.13940       -4.28405
C          4.90278       -4.00273       -5.70796
C          3.80504       -2.95548       -5.89774
C          4.07613       -1.54865       -5.33696
C          5.37883       -0.87403       -5.84409
C          6.47961       -0.82210       -4.83735
N          7.21283        0.23670       -4.59613
N          8.09234       -0.15923       -3.60853
C          7.86599       -1.44591       -3.24089
N          8.55504       -2.13183       -2.31721
C          8.30223       -3.53731       -2.00342
C          9.48786       -4.06906       -1.18924
O          9.73581       -3.22880       -0.07187
C          9.17075       -3.66530        1.17386
C         10.21571       -4.42482        1.98969
O          9.56879       -4.81392        3.19168
C         10.32889       -5.41483        4.17539
C         11.69424       -5.70083        4.06014
C         12.36103       -6.30832        5.12781
C         11.71131       -6.64691        6.32493
C         10.33759       -6.35834        6.40165
C          9.65140       -5.75002        5.35203
C         12.48535       -7.31681        7.47047
C         13.63416       -6.41279        8.03345
C         13.44675       -4.96740        8.58898
C         12.37347       -4.85419        9.68675
C         14.80652       -4.58498        9.21300
C         13.13279       -3.94357        7.48109
C         11.55129       -7.80587        8.59530
C         13.18044       -8.58611        6.91134
N          6.84688       -1.88415       -4.02374
C          9.15181        0.75052       -3.19533
C          9.04959        1.15341       -1.72109
O          8.77430        0.35279       -0.84148
O          9.33217        2.44360       -1.56855
C          9.36604        2.99433       -0.20079
C         10.79741        3.12817        0.29005
C         10.85739        3.86399        1.63549
C         12.28555        4.02149        2.16899
C         12.34582        4.80048        3.48412
H          5.82751       -5.01550       -4.16171
H          4.48542       -4.21938       -3.68937
H          4.54914       -4.96150       -6.11799
H          5.80330       -3.72925       -6.28158
H          2.86960       -3.33175       -5.45196
H          3.61220       -2.88352       -6.97954
H          4.07396       -1.56714       -4.23636
H          3.22510       -0.91339       -5.61611
H          5.19287        0.16518       -6.14249
H          5.74488       -1.38745       -6.74962
H          8.92896       -1.56368       -1.54487
H          8.21413       -4.11165       -2.93818
H          7.36363       -3.65204       -1.43250
H         10.39531       -4.05610       -1.81247
H          9.29014       -5.11133       -0.88895
H          8.28032       -4.29632        1.01227
H          8.85406       -2.76553        1.71939
H         11.07729       -3.76432        2.19019
H         10.58263       -5.30731        1.43162
H         12.24860       -5.45935        3.15366
H         13.42682       -6.51151        5.01202
H          9.77686       -6.60751        7.30191
H          8.58666       -5.52789        5.43247
H         14.40268       -6.33762        7.24444
H         14.10225       -7.00702        8.83789
H         12.51629       -5.60522       10.47718
H         11.35832       -4.96597        9.28294
H         12.42683       -3.86131       10.15819
H         15.06054       -5.24815       10.05332
H         14.78202       -3.55293        9.59266
H         15.61836       -4.65278        8.47316
H         12.14746       -4.10973        7.02811
H         13.88476       -3.98217        6.67873
H         13.14290       -2.92588        7.90030
H         10.96841       -7.00615        9.06386
H         12.14841       -8.28255        9.38530
H         10.84696       -8.55956        8.21385
H         13.90566       -8.34754        6.12197
H         12.43824       -9.28055        6.49276
H         13.72190       -9.10745        7.71428
H          6.30141       -2.82717       -3.98462
H          9.08952        1.62089       -3.85503
H         10.13068        0.26432       -3.34373
H          8.76116        2.34718        0.44682
H          8.88119        3.97350       -0.30452
H         11.38664        3.67804       -0.46082
H         11.24728        2.12712        0.38870
H         10.24688        3.32687        2.38153
H         10.39935        4.86215        1.52550
H         12.90214        4.52930        1.40882
H         12.73189        3.02265        2.30741
H         11.95761        5.82194        3.35921
H         13.37647        4.87975        3.85452
H         11.74701        4.31123        4.26649
