40

C          2.29799       -2.17115       -0.32202
C          3.79844       -2.12830       -0.61799
C          4.17782       -0.99023       -1.57239
C          5.67921       -0.96204       -1.87087
N          6.03916        0.10288       -2.81510
C          6.79788        1.16465       -2.49597
O          7.33157        1.32170       -1.38315
C          6.95801        2.25030       -3.57625
N          8.35439        2.57950       -3.88341
C          9.16572        3.32437       -3.09229
N          8.83638        3.46869       -1.80749
N         10.27710        3.89601       -3.61584
C         10.59185        3.90320       -5.06259
C          9.81100        4.94017       -5.87849
C         10.02662        6.38343       -5.41870
N         11.21838        4.52359       -2.78849
H          2.05312       -2.99345        0.36246
H          1.71360       -2.31840       -1.24185
H          1.95642       -1.23610        0.14494
H          4.11846       -3.08980       -1.05229
H          4.36001       -2.01457        0.32362
H          3.87791       -0.02209       -1.13938
H          3.61615       -1.10234       -2.51622
H          6.00669       -1.92294       -2.29743
H          6.26296       -0.78320       -0.95920
H          5.62796        0.06226       -3.74299
H          6.44296        3.15076       -3.20289
H          6.48187        1.96406       -4.52227
H          8.67117        2.39554       -4.82641
H          8.21581        2.71747       -1.40403
H          9.43082        4.02658       -1.20688
H         10.46286        2.88687       -5.47208
H         11.66712        4.11316       -5.10221
H          8.73538        4.70019       -5.86810
H         10.13704        4.82576       -6.92392
H          9.65181        6.54810       -4.39759
H          9.49036        7.08159       -6.07309
H         11.09103        6.65611       -5.43670
H         11.59771        3.88515       -2.08739
H         10.85658        5.37971       -2.36533
