49

N          2.05344       -2.76443        0.01436
C          1.65825       -1.40582        0.41451
C          2.47291       -0.86177        1.59216
C          3.99329       -0.59097        1.44680
C          4.38113        0.23538        0.21094
N          4.47266       -0.56959       -1.03000
C          4.99543       -1.81215       -0.94673
N          5.25939       -2.52135       -2.06543
N          5.25735       -2.35521        0.24854
C          4.98312       -1.77057        1.56892
C          4.59244       -2.86559        2.56978
C          5.72047       -3.87527        2.83933
C          5.31431       -4.89599        3.89219
Br         6.74043       -6.20818        4.18967
C          4.08173        0.09370       -2.30258
C          5.28981        0.41562       -3.20516
O          6.08118       -0.42797       -3.60849
O          5.31524        1.70661       -3.52626
C          6.36705        2.15642       -4.46191
C          7.57962        2.65030       -3.70008
C          3.01368       -0.64413       -3.12739
H          1.56067       -3.03251       -0.83927
H          1.74413       -3.43457        0.72177
H          0.59192       -1.32497        0.69636
H          1.78525       -0.74723       -0.45751
H          2.31567       -1.51006        2.46837
H          2.01607        0.10194        1.86885
H          4.24025        0.05296        2.30606
H          5.34410        0.74421        0.38348
H          3.62814        1.01403        0.03522
H          5.60735       -1.97386       -2.87083
H          5.61975       -3.46210       -1.95414
H          5.75397       -3.24012        0.24100
H          5.93818       -1.33756        1.92040
H          3.69487       -3.38807        2.20822
H          4.32259       -2.36799        3.51483
H          6.62880       -3.34888        3.17137
H          5.99175       -4.42665        1.92290
H          4.43587       -5.47734        3.59056
H          5.12670       -4.43210        4.86701
H          3.66301        1.05759       -1.99079
H          5.87775        2.95914       -5.02536
H          6.60735        1.32165       -5.13130
H          7.31185        3.45662       -3.00528
H          8.31187        3.04923       -4.41556
H          8.06271        1.83667       -3.14411
H          3.36101       -1.61402       -3.49576
H          2.74675       -0.02138       -3.99156
H          2.10780       -0.79539       -2.52973
