68

C          0.61210       -0.28340       -1.23095
C          2.01356       -0.15150       -0.64676
C          2.41994       -1.38632        0.21598
C          2.39419       -1.19299        1.75090
C          0.99120       -0.83188        2.27433
C          0.83988       -0.76074        3.80919
C         -0.59057       -0.80518        4.21905
C         -1.28784        0.16526        4.82149
F         -0.75905        1.34333        5.14296
F         -2.55578        0.07463        5.16899
F         -1.23140       -1.97159        3.92913
C          3.48752       -0.20226        2.23476
S          4.98283       -1.18433        2.64404
C          4.07804       -2.63732        2.70822
N          2.82595       -2.49666        2.34175
C          4.65944       -3.95134        3.11372
C          5.19901       -3.93054        4.55916
C          5.91728       -5.22305        4.98620
C          5.07925       -6.30498        5.77285
C          3.83032       -7.00798        5.11078
C          3.95089       -7.90913        3.81930
C          4.89159       -9.17890        3.77317
C          4.65698      -10.32833        4.82366
F          3.36693      -10.70467        4.83462
F          5.41821      -11.37536        4.47473
F          5.00938       -9.92859        6.05746
F          4.69564       -9.71516        2.54110
F          6.18009       -8.76961        3.86830
F          2.68710       -8.31350        3.54407
F          4.36056       -7.10054        2.79208
F          3.24356       -7.74855        6.07373
F          2.95301       -6.00101        4.76228
F          5.93102       -7.26335        6.19597
F          4.57189       -5.66046        6.86703
F          6.52733       -5.81985        3.91701
F          6.90340       -4.86776        5.86598
O          2.90334       -0.00895       -1.74694
C          4.16016        0.60835       -1.42070
C          4.96752        0.78573       -2.67495
C          5.87219       -0.20376       -3.08326
C          6.60795       -0.04841       -4.25959
C          6.44454        1.10210       -5.03668
C          5.54326        2.09376       -4.63699
C          4.80799        1.93520       -3.46106
H         -0.14500       -0.41854       -0.44680
H          0.56885       -1.14880       -1.90647
H          0.35695        0.61387       -1.80709
H          2.06564        0.76907       -0.02586
H          3.43834       -1.68362       -0.07691
H          1.76370       -2.23291       -0.04006
H          0.28460       -1.57612        1.87361
H          0.69570        0.13004        1.83232
H          1.28967        0.15440        4.21779
H          1.35799       -1.61079        4.28817
H          3.20342        0.34315        3.14215
H          3.75454        0.51935        1.45595
H          2.20510       -3.30620        2.29588
H          5.48316       -4.18644        2.42073
H          3.89784       -4.72851        2.97830
H          4.40027       -3.71021        5.27909
H          5.95616       -3.14081        4.66311
H          4.72626       -0.02156       -0.70406
H          3.96574        1.58690       -0.93872
H          6.00075       -1.10259       -2.47530
H          7.31142       -0.82211       -4.56939
H          7.02237        1.22703       -5.95287
H          5.41633        2.99321       -5.24026
H          4.10433        2.71047       -3.14999
