57

N          1.09560       -0.05361        1.45492
C          2.55079       -0.11965        1.59384
C          3.08063       -1.44746        1.04468
C          4.60740       -1.53508        1.07462
C          5.13661       -2.90213        0.58623
C          6.63205       -3.02370        0.71531
C          7.46263       -2.82566       -0.37980
C          8.87512       -2.86988       -0.28977
C          9.49271       -3.10822        0.91736
C          8.68734       -3.31576        2.06796
C          7.25306       -3.28553        1.97475
C          6.53176       -3.50238        3.17203
C          7.14308       -3.70265        4.38958
C          6.33570       -3.87380        5.65213
C          6.21313       -2.63514        6.56983
C          5.53003       -1.41272        5.98384
Br         6.77707       -0.38035        4.84644
Br         5.12236       -3.20872        8.12400
N          8.53135       -3.73676        4.43353
C          9.26099       -3.55293        3.32281
C          9.25234       -4.05399        5.69599
C          9.39368       -5.56910        5.93647
C          9.95094       -5.82954        7.31859
C          9.13480       -5.68037        8.45180
C          9.65122       -5.89522        9.73039
C         10.99051       -6.26475        9.89108
C         11.80934       -6.41781        8.76995
C         11.29211       -6.19749        7.49044
H          0.74501        0.87231        1.69787
H          0.63477       -0.71598        2.08009
H          2.91885        0.01223        2.63476
H          2.97882        0.71000        1.00843
H          2.70601       -1.57571        0.01699
H          2.65190       -2.27993        1.63232
H          4.97420       -1.33613        2.09631
H          5.04377       -0.74212        0.44578
H          4.85536       -3.04658       -0.46697
H          4.63669       -3.71196        1.14241
H          7.00765       -2.62541       -1.35172
H          9.47149       -2.70972       -1.18791
H         10.57960       -3.13666        1.00126
H          5.44360       -3.48620        3.15841
H          6.72354       -4.70600        6.25310
H          5.32199       -4.16871        5.34879
H          7.17071       -2.34688        7.01842
H          5.23134       -0.71066        6.76531
H          4.66683       -1.66292        5.35626
H         10.34238       -3.59899        3.45158
H          8.71917       -3.57780        6.52381
H         10.23788       -3.57727        5.63404
H         10.05105       -5.99904        5.16658
H          8.41290       -6.05604        5.82211
H          8.08100       -5.40772        8.34161
H          9.00543       -5.78343       10.60197
H         11.39177       -6.43878       10.88966
H         12.85126       -6.71617        8.88963
H         11.93477       -6.32782        6.61670
