54

C          0.00397        5.70479       -1.39975
O          1.28572        6.03107       -0.88035
C          2.28402        5.11113       -1.28190
C          3.59235        5.56475       -0.65069
O          4.63097        4.73491       -1.16702
C          5.90952        5.07181       -0.67226
C          6.90230        4.15376       -1.38583
O          8.26132        4.38422       -0.99042
C          8.85394        5.52084       -1.57465
C         10.33829        5.46493       -1.20017
N         11.07904        6.63532       -1.68366
C         11.18325        7.02222       -2.97124
N         11.13257        6.22713       -4.05358
C         11.53545        4.81457       -4.12201
C         11.54655        4.38196       -5.57876
F         12.35865        5.26193       -6.31136
N         11.31428        8.35735       -3.06367
C         11.11993        8.99697       -1.75486
C         11.36254        7.81043       -0.79343
C         12.78561        7.74514       -0.19089
C         13.04434        8.94145        0.75334
O         13.16919       10.19616        0.07282
C         13.04043        6.43673        0.56964
H         -0.68964        6.47634       -1.04592
H         -0.33883        4.71717       -1.04098
H          0.00584        5.69852       -2.50528
H          2.39235        5.09370       -2.38477
H          2.03664        4.08264       -0.95347
H          3.53869        5.48465        0.45097
H          3.77938        6.62515       -0.90699
H          5.97649        4.92258        0.42341
H          6.13411        6.13939       -0.87795
H          6.79507        4.26828       -2.48001
H          6.69060        3.10792       -1.12865
H          8.41954        6.46948       -1.20119
H          8.72150        5.51245       -2.67599
H         10.79270        4.53225       -1.55929
H         10.43326        5.44902       -0.10915
H         11.19917        6.71432       -4.94525
H         10.82100        4.17233       -3.58641
H         12.53262        4.68264       -3.67388
H         10.54023        4.41662       -6.02371
H         11.95709        3.36735       -5.67193
H         11.66639        8.83502       -3.88485
H         10.09643        9.39504       -1.67676
H         11.84042        9.80471       -1.59211
H         10.61770        7.80771        0.01595
H         13.50841        7.81730       -1.02382
H         13.94624        8.73100        1.34739
H         12.20814        9.04172        1.46648
H         14.10686       10.43060        0.01610
H         12.35479        6.32060        1.42292
H         14.06315        6.42476        0.96845
H         12.93694        5.55497       -0.07495
