59

C          0.93965       -0.77476       -0.25450
C          2.31097       -1.22472       -0.76473
C          3.16728       -1.89158        0.31768
C          4.54299       -2.34056       -0.18767
C          5.38742       -3.01174        0.90557
C          6.74807       -3.41945        0.38181
O          7.49529       -4.04467        1.49792
C          8.80554       -4.17624        1.34544
O          9.48176       -3.86909        0.38535
C          9.40896       -4.77178        2.63719
N         10.84125       -4.99308        2.47507
C         11.47469       -6.20348        2.19251
C         10.80308       -7.53130        2.12096
C         11.78598       -8.68430        1.86793
C         11.07530      -10.03599        1.77056
C         12.06849      -11.19189        1.55403
N         11.41534      -12.48147        1.44097
C         10.93050      -13.02998        0.27019
C         10.26315      -14.19812        0.58645
C         10.33480      -14.35955        1.99904
C         11.04517      -13.28558        2.50112
N         12.75980       -6.00045        1.99674
N         12.91751       -4.65915        2.13905
C         11.78163       -4.01713        2.41624
C         11.58819       -2.55800        2.61753
C         12.89010       -1.74859        2.60457
F         12.55899       -0.41982        2.81196
H          0.35058       -0.30499       -1.05323
H          1.03654       -0.04230        0.56047
H          0.35737       -1.62454        0.13118
H          2.85541       -0.35836       -1.17653
H          2.17969       -1.92687       -1.60496
H          2.62662       -2.76271        0.72684
H          3.29882       -1.19347        1.16299
H          5.08609       -1.46900       -0.59204
H          4.41210       -3.03803       -1.03251
H          4.86274       -3.89895        1.29396
H          5.51883       -2.32049        1.75377
H          7.33880       -2.56667        0.02053
H          6.68615       -4.16635       -0.42263
H          8.92576       -5.72415        2.88253
H          9.22809       -4.08919        3.47869
H         10.04226       -7.49533        1.32139
H         10.25043       -7.70283        3.06108
H         12.53140       -8.70509        2.67853
H         12.34691       -8.48372        0.94215
H         10.35251      -10.03059        0.93873
H         10.49771      -10.23407        2.68799
H         12.78497      -11.23704        2.38905
H         12.65589      -11.02186        0.63870
H         11.11791      -12.55196       -0.68650
H          9.79406      -14.87211       -0.12292
H          9.93041      -15.18088        2.58184
H         11.33776      -13.03584        3.51634
H         13.84484       -4.25793        2.02375
H         11.07337       -2.38983        3.57794
H         10.92262       -2.18343        1.82280
H         13.40422       -1.82008        1.63120
H         13.57534       -2.05848        3.41108
