66

C         -1.89848        2.39582       -1.67617
C         -1.29194        1.11405       -1.16716
C          0.08960        0.89818       -1.18699
C          0.63053       -0.29994       -0.71872
C         -0.15869       -1.34216       -0.21630
C         -1.54614       -1.10961       -0.21646
C         -2.10683        0.08593       -0.66684
O         -2.34016       -2.14467        0.29931
C         -3.70891       -2.11561        0.06863
N         -4.17290       -3.53535        0.25169
C         -3.77081       -4.15340        1.58784
C         -4.37438       -3.48907        2.82496
C         -3.89104       -4.23007        4.05673
C         -2.71782       -3.82936        4.71081
C         -2.24941       -4.53658        5.82024
C         -2.94821       -5.65413        6.28426
C         -4.11882       -6.06029        5.63773
C         -4.58698       -5.35151        4.52955
C         -5.64244       -3.71292       -0.06839
C         -5.97434       -3.58046       -1.55954
C         -5.01829       -4.31797       -2.53807
C         -4.41912       -5.59887       -1.99157
C         -5.22375       -6.67306       -1.57470
C         -4.65180       -7.80846       -0.99755
C         -3.26569       -7.89245       -0.82254
C         -2.45157       -6.84136       -1.24665
C         -3.02651       -5.70557       -1.82963
C          0.50629       -2.60789        0.30908
C          0.33924       -2.77655        1.83205
C          0.10625       -3.88412       -0.45557
H         -1.21451        3.24265       -1.53807
H         -2.84070        2.63145       -1.16383
H         -2.11719        2.32607       -2.75304
H          0.75357        1.67821       -1.56246
H          1.71335       -0.43919       -0.73800
H         -3.18399        0.25428       -0.61418
H         -3.95640       -1.81276       -0.96132
H         -4.26356       -1.48632        0.78605
H         -3.66191       -4.11374       -0.44754
H         -2.67653       -4.11128        1.61862
H         -4.06976       -5.20752        1.50997
H         -5.47358       -3.50972        2.78700
H         -4.06157       -2.43624        2.88528
H         -2.17162       -2.95130        4.35827
H         -1.34142       -4.20941        6.32759
H         -2.58568       -6.20290        7.15373
H         -4.67340       -6.92538        6.00234
H         -5.50983       -5.66724        4.03643
H         -6.20754       -2.99036        0.53362
H         -5.88631       -4.72025        0.29016
H         -6.04258       -2.52361       -1.85395
H         -6.99502       -3.97762       -1.65996
H         -4.19603       -3.64574       -2.82884
H         -5.57405       -4.51877       -3.46578
H         -6.30624       -6.62809       -1.71384
H         -5.29007       -8.63661       -0.68771
H         -2.82467       -8.78097       -0.37066
H         -1.36841       -6.90351       -1.13653
H         -2.37945       -4.90154       -2.19263
H          1.58237       -2.45925        0.12469
H         -0.70997       -2.94335        2.11255
H          0.69053       -1.88431        2.36682
H          0.92188       -3.63730        2.18876
H         -0.92597       -4.18517       -0.23350
H          0.76136       -4.71824       -0.16758
H          0.19706       -3.74274       -1.54160
