129

C          0.62868        1.65069       -5.18746
C          2.15618        1.58181       -5.13766
C          2.69757        0.14865       -5.16024
C          4.22644        0.07241       -5.13396
C          4.77597       -1.35671       -5.18472
C          6.30590       -1.41452       -5.19887
C          6.87815       -2.83169       -5.30361
C          8.40783       -2.85036       -5.36355
C          9.02118       -4.24636       -5.51037
C         10.54790       -4.20220       -5.61537
C         11.22309       -5.57080       -5.74696
C         12.74216       -5.44726       -5.90660
C         13.48341       -6.78824       -5.93759
C         14.97711       -6.66591       -6.29933
C         15.70999       -8.01237       -6.30478
N         16.11457       -8.41673       -4.94285
C         16.03800       -7.64853       -3.84227
N         16.18755       -8.17990       -2.60431
C         16.61606       -7.34748       -1.45020
O         17.90397       -7.65871       -1.01449
C         18.99467       -7.15423       -1.82591
C         19.10538       -5.63291       -1.86456
C         19.24222       -4.96127       -0.49392
C         19.29862       -3.43352       -0.59089
C         19.37551       -2.72422        0.76434
C         19.37859       -1.19732        0.64106
C         19.40396       -0.46237        1.98428
C         19.36619        1.06194        1.83940
C         19.34345        1.81244        3.17426
C         19.27657        3.33213        3.00781
C         16.29210       -9.65060       -2.42225
C         15.76743      -10.15396       -1.07265
C         14.25528      -10.00499       -0.84901
C         13.39281      -10.84027       -1.80457
C         11.90996      -10.88756       -1.41928
C         11.06827      -11.73648       -2.37772
C          9.61271      -11.91658       -1.93586
C          8.78749      -12.77406       -2.90104
C          7.35112      -13.02241       -2.43053
C          6.52890      -13.87987       -3.39803
C          5.10234      -14.15438       -2.91284
C          4.27539      -15.00678       -3.88077
C          2.85743      -15.28570       -3.37742
N         15.80484       -6.32962       -4.01380
C         15.75995       -5.74132       -5.35760
H          0.27019        2.68910       -5.16963
H          0.17837        1.12818       -4.33034
H          0.23948        1.17972       -6.10243
H          2.52064        2.09271       -4.23043
H          2.57884        2.14044       -5.98988
H          2.32285       -0.36605       -6.06266
H          2.28649       -0.41003       -4.30094
H          4.60223        0.57656       -4.22616
H          4.63177        0.64512       -5.98683
H          4.38476       -1.86444       -6.08383
H          4.39295       -1.92939       -4.32199
H          6.69849       -0.92910       -4.28796
H          6.68069       -0.81309       -6.04591
H          6.47126       -3.32366       -6.20431
H          6.53340       -3.43458       -4.44533
H          8.81326       -2.37061       -4.45516
H          8.74054       -2.22250       -6.20892
H          8.60560       -4.73909       -6.40632
H          8.72557       -4.87378       -4.65141
H         10.95556       -3.68485       -4.72851
H         10.82842       -3.57815       -6.48207
H         10.80602       -6.11280       -6.61255
H         10.99127       -6.18510       -4.85940
H         13.12357       -4.82281       -5.07972
H         12.96119       -4.88796       -6.83320
H         13.01167       -7.44787       -6.68377
H         13.36343       -7.29981       -4.96698
H         15.05588       -6.25088       -7.31618
H         16.61568       -7.95664       -6.92768
H         15.06697       -8.80450       -6.71526
H         16.48556       -9.35291       -4.83048
H         15.94597       -7.55955       -0.60870
H         16.51771       -6.28801       -1.72529
H         18.91681       -7.56627       -2.84916
H         19.88533       -7.59493       -1.35786
H         18.24882       -5.19736       -2.41000
H         19.98530       -5.39855       -2.48734
H         20.14928       -5.33896        0.00742
H         18.39809       -5.25707        0.15079
H         18.40518       -3.07292       -1.13284
H         20.16396       -3.13708       -1.20888
H         20.28087       -3.05412        1.30211
H         18.52034       -3.03795        1.38864
H         18.48467       -0.87990        0.07480
H         20.24629       -0.88220        0.03543
H         20.30671       -0.75619        2.54762
H         18.54480       -0.79117        2.59519
H         18.47672        1.34760        1.24982
H         20.23822        1.39511        1.24962
H         20.23983        1.54314        3.75775
H         18.48034        1.46767        3.76846
H         20.14120        3.70961        2.44192
H         19.26520        3.84462        3.97933
H         18.36887        3.63205        2.46270
H         17.34463       -9.95488       -2.54068
H         15.70011      -10.12558       -3.21690
H         16.33730       -9.69131       -0.25452
H         16.02833      -11.22387       -1.03771
H         13.95605       -8.94390       -0.90995
H         14.03979      -10.31414        0.18587
H         13.78458      -11.87252       -1.82921
H         13.47956      -10.45740       -2.83757
H         11.50203       -9.86270       -1.37430
H         11.82082      -11.29438       -0.39732
H         11.53556      -12.73175       -2.48049
H         11.09320      -11.28550       -3.38584
H          9.13484      -10.92769       -1.82285
H          9.59507      -12.37789       -0.93316
H          9.29335      -13.74504       -3.04519
H          8.76949      -12.29205       -3.89453
H          6.84236      -12.05429       -2.27850
H          7.37375      -13.51089       -1.44071
H          7.04755      -14.84068       -3.56337
H          6.49042      -13.38335       -4.38372
H          4.58354      -13.19487       -2.74002
H          5.14257      -14.65690       -1.93035
H          4.79811      -15.96162       -4.05959
H          4.22730      -14.50011       -4.85947
H          2.87491      -15.82593       -2.41920
H          2.28783      -15.89520       -4.09227
H          2.30005      -14.35051       -3.21875
H         15.40996       -5.81056       -3.24039
H         16.78714       -5.59158       -5.72568
H         15.29298       -4.75492       -5.27088
