97

C          0.52117       -0.63683        0.10657
C          2.04506       -0.50746        0.06070
C          2.52319        0.87348       -0.39900
C          4.04783        1.01159       -0.43825
C          4.53269        2.39611       -0.87824
C          6.05840        2.52552       -0.91258
C          6.55283        3.91924       -1.30986
C          8.07943        4.03714       -1.34729
C          8.58188        5.44695       -1.67014
C         10.10784        5.55097       -1.74672
C         10.61317        6.97361       -2.00209
C         12.13790        7.07548       -2.10010
C         12.64189        8.50353       -2.32679
C         14.16579        8.60437       -2.43661
C         14.67137       10.03266       -2.65794
C         16.19335       10.12116       -2.80535
C         16.70238       11.55189       -3.01572
C         18.19661       11.65062       -3.35216
C         19.13115       11.18095       -2.23097
C         20.60632       11.25700       -2.64144
C         21.56012       10.67883       -1.58364
O         21.39290       11.25672       -0.28220
C         21.80031       12.61416       -0.21868
C         23.28634       12.74076       -0.51940
N         23.59509       12.13558       -1.86760
C         23.06271       10.69792       -1.97186
C         23.32266       10.11947       -3.36129
O         24.71367        9.92066       -3.54444
C         25.02922        9.25258       -4.79424
C         26.53266        9.07920       -4.89951
C         26.93177        8.33521       -6.18014
C         28.44636        8.14648       -6.31776
C         28.83447        7.39519       -7.59230
N         25.00843       12.32839       -2.15955
H          0.20945       -1.63630        0.44006
H          0.07709       -0.46288       -0.88500
H          0.08073        0.09740        0.79770
H          2.46106       -1.27666       -0.61179
H          2.46363       -0.72025        1.05896
H          2.10371        1.64466        0.27120
H          2.11009        1.08711       -1.40072
H          4.46529        0.24646       -1.11643
H          4.45860        0.78491        0.56153
H          4.11770        3.15999       -0.19719
H          4.12338        2.62748       -1.87733
H          6.47130        1.77812       -1.61298
H          6.46712        2.26655        0.08012
H          6.14733        4.66329       -0.60161
H          6.14132        4.18773       -2.29866
H          8.48097        3.32619       -2.09085
H          8.49252        3.72033       -0.37332
H          8.20693        6.14917       -0.90480
H          8.14560        5.78235       -2.62739
H         10.47913        4.88185       -2.54286
H         10.54653        5.17367       -0.80601
H         10.25522        7.63618       -1.19456
H         10.16214        7.36063       -2.93267
H         12.49461        6.42785       -2.92037
H         12.59052        6.67171       -1.17715
H         12.29179        9.14888       -1.50220
H         12.18379        8.91075       -3.24509
H         14.51356        7.96259       -3.26538
H         14.62569        8.19236       -1.52088
H         14.34618       10.67077       -1.81796
H         14.19568       10.45380       -3.56051
H         16.50860        9.49627       -3.66043
H         16.66310        9.67606       -1.91162
H         16.48394       12.15896       -2.12018
H         16.13388       12.01415       -3.83874
H         18.44159       12.69569       -3.60851
H         18.39802       11.05710       -4.26157
H         18.89910       10.13963       -1.95501
H         18.95938       11.78101       -1.32353
H         20.86170       12.30154       -2.90084
H         20.74229       10.68166       -3.57124
H         21.30551        9.61742       -1.43574
H         21.61638       12.95460        0.80871
H         21.20507       13.25661       -0.89328
H         23.88017       12.17281        0.21057
H         23.63272       13.78191       -0.55094
H         23.10026       12.69625       -2.57822
H         23.63972       10.13853       -1.22063
H         22.91157       10.78110       -4.15063
H         22.77468        9.15997       -3.43072
H         24.63654        9.85465       -5.63424
H         24.51443        8.27490       -4.80345
H         26.89225        8.52597       -4.01726
H         27.01633       10.06976       -4.87871
H         26.55305        8.88343       -7.05992
H         26.44027        7.34740       -6.19869
H         28.82499        7.60313       -5.43617
H         28.93782        9.13349       -6.30342
H         28.38444        6.39199       -7.61591
H         29.92284        7.27295       -7.66759
H         28.49684        7.93253       -8.49054
H         25.24831       11.60679       -2.86281
H         25.51038       12.06939       -1.30308
