93

C          0.86601      -16.07273       -8.89164
C          2.39632      -16.03283       -8.89923
C          2.96964      -14.61712       -8.77110
C          4.50053      -14.56914       -8.79560
C          5.07837      -13.15612       -8.66334
C          6.60863      -13.11470       -8.72264
C          7.20061      -11.71078       -8.55824
C          8.72689      -11.67665       -8.68787
C          9.34267      -10.29620       -8.43927
C         10.86344      -10.26537       -8.62311
C         11.49822       -8.90774       -8.30645
C         13.01140       -8.86806       -8.54345
C         13.66584       -7.54851       -8.12347
C         15.16648       -7.48060       -8.42368
C         15.82230       -6.18286       -7.93725
C         17.34258       -6.10593       -8.15066
C         17.82292       -6.22204       -9.60733
C         17.23974       -5.14126      -10.52656
C         17.74524       -5.26988      -11.96248
O         19.14490       -5.16961      -12.12279
C         19.63735       -3.90660      -11.73874
N         18.96910       -2.86219      -12.51246
C         17.79006       -3.06481      -13.10547
N         17.28450       -2.13946      -13.93496
C         17.71157       -0.74114      -14.01874
C         19.07465       -0.52283      -14.70833
O         20.05424       -1.10912      -14.22506
C         19.21618        0.39588      -15.84740
C         18.11710        0.90567      -16.57035
C         18.32502        1.75259      -17.65656
C         19.62566        2.11205      -18.02364
C         20.72502        1.61712      -17.30891
C         20.52545        0.76105      -16.23403
N         17.09970       -4.23757      -12.86593
C         15.83486       -4.49616      -13.44028
O         15.26253       -3.73710      -14.21213
O         15.36917       -5.66682      -13.01450
C         14.07532       -6.11173      -13.57109
C         14.28138       -6.89083      -14.85360
H          0.48795      -17.10023       -8.98365
H          0.44694      -15.48883       -9.72475
H          0.46011      -15.65260       -7.95914
H          2.77206      -16.49228       -9.82930
H          2.78587      -16.65713       -8.07731
H          2.60391      -14.16017       -7.83444
H          2.57150      -13.98807       -9.58699
H          4.86300      -15.02365       -9.73478
H          4.89872      -15.20230       -7.98312
H          4.73590      -12.70904       -7.71335
H          4.66532      -12.51596       -9.46296
H          6.94547      -13.54189       -9.68402
H          7.02225      -13.77533       -7.94022
H          6.90650      -11.30360       -7.57477
H          6.75540      -11.03424       -9.30934
H          9.01334      -12.02963       -9.69447
H          9.16824      -12.40056       -7.98028
H          9.09139       -9.96501       -7.41634
H          8.87774       -9.55797       -9.11661
H         11.10996      -10.55360       -9.66079
H         11.32385      -11.03696       -7.98125
H         11.28765       -8.64616       -7.25469
H         11.01237       -8.12271       -8.91309
H         13.21813       -9.05950       -9.61222
H         13.48890       -9.69838       -7.99441
H         13.50435       -7.39169       -7.04304
H         13.15489       -6.70745       -8.62619
H         15.31691       -7.60346       -9.51143
H         15.67488       -8.34116       -7.95456
H         15.62443       -6.06631       -6.85960
H         15.32569       -5.31934       -8.41459
H         17.82848       -6.90650       -7.57024
H         17.71546       -5.15862       -7.72593
H         17.56430       -7.21390      -10.01290
H         18.92209       -6.17025       -9.62544
H         17.45163       -4.13349      -10.13160
H         16.14414       -5.22259      -10.56383
H         17.48315       -6.24730      -12.38123
H         20.70574       -3.89002      -11.98491
H         19.50730       -3.72399      -10.65920
H         19.55531       -2.13741      -12.99825
H         16.37462       -2.41479      -14.33501
H         17.81350       -0.31368      -13.00534
H         16.89976       -0.20127      -14.51342
H         17.09518        0.63000      -16.31010
H         17.47332        2.13287      -18.21995
H         19.78477        2.78120      -18.87002
H         21.73684        1.90302      -17.59671
H         21.36811        0.36358      -15.66933
H         13.44557       -5.22548      -13.71278
H         13.66526       -6.73328      -12.76670
H         14.69445       -6.25678      -15.64847
H         13.30998       -7.27130      -15.19854
H         14.94413       -7.75118      -14.69521
