43

O          1.08704        0.94978        0.93818
C          2.38619        0.48100        0.60330
C          2.84317        1.27972       -0.61556
C          4.20112        0.81250       -1.15604
N          4.13482       -0.54509       -1.73629
C          3.85774       -0.75022       -3.03694
N          3.80012       -2.01331       -3.51552
C          3.80362       -2.36485       -4.90828
C          2.76443       -3.15211       -5.41671
C          2.79602       -3.54230       -6.75703
C          3.84412       -3.12918       -7.58389
C          4.87354       -2.33523       -7.06885
C          4.86814       -1.95735       -5.72487
N          3.62514        0.28734       -3.84149
C          3.96542        1.67796       -3.51701
C          4.80196        1.74407       -2.23950
C          6.25904        1.34706       -2.51980
O          6.63618        0.80879       -3.54401
O          7.03601        1.65075       -1.47058
C          8.46013        1.30315       -1.58560
C          9.12484        1.67319       -0.27907
H          0.79374        0.51945        1.75593
H          2.36821       -0.60137        0.36681
H          3.09903        0.63095        1.43658
H          2.91807        2.34122       -0.33574
H          2.06659        1.20609       -1.39279
H          4.92025        0.75041       -0.32682
H          4.52311       -1.32059       -1.21274
H          3.66549       -2.76016       -2.84025
H          1.94281       -3.45871       -4.76768
H          1.99421       -4.16431       -7.15493
H          3.86366       -3.43382       -8.63026
H          5.69938       -2.02564       -7.70946
H          5.68747       -1.36978       -5.30649
H          3.39630        0.05925       -4.80585
H          3.03834        2.25748       -3.40227
H          4.53208        2.09180       -4.36142
H          4.79174        2.77233       -1.85376
H          8.87141        1.85582       -2.44137
H          8.52969        0.22916       -1.80860
H          9.03444        2.74769       -0.07515
H         10.19332        1.42647       -0.33401
H          8.69243        1.11781        0.56355
