43

N          2.77641        0.55129        3.22905
C          2.18800       -0.69065        2.68499
C          2.79630       -1.06541        1.32775
C          4.33334       -1.05764        1.28652
C          4.96306       -2.08840        2.24103
P          6.73806       -1.81708        2.53999
C          7.26736       -0.07522        2.61629
C          6.86303        0.59211        3.95985
N          7.90442        0.23799        4.93709
N          6.62205        2.01316        3.67484
N          5.63331       -0.05121        4.41932
C          7.42986       -2.87025        3.84667
C          7.06234       -4.37088        3.75755
C          7.49807       -5.02530        2.43888
C          7.68399       -5.09079        4.96350
H          2.27670        0.81706        4.07971
H          2.62701        1.32481        2.57589
H          1.09211       -0.63494        2.56284
H          2.37147       -1.48923        3.42192
H          2.44011       -0.35601        0.56327
H          2.40620       -2.05111        1.02997
H          4.67140       -0.04537        1.54871
H          4.67268       -1.24893        0.25773
H          4.87076       -3.11095        1.84187
H          4.49406       -2.06431        3.23169
H          7.35744       -2.24532        1.33906
H          6.78627        0.43786        1.77182
H          8.35308       -0.05126        2.43976
H          8.80111        0.64293        4.66283
H          7.67962        0.63881        5.85106
H          7.46754        2.48238        3.34146
H          6.32484        2.49774        4.52440
H          5.54360       -0.00030        5.43402
H          4.78728        0.36623        3.99417
H          7.10216       -2.42399        4.79484
H          8.52198       -2.72565        3.79296
H          5.96562       -4.45765        3.84651
H          8.58147       -4.91580        2.27831
H          6.98526       -4.61021        1.55843
H          7.27555       -6.10004        2.45543
H          8.78278       -5.04685        4.92692
H          7.39303       -6.14955        4.96948
H          7.35843       -4.64653        5.91398
