57

C          1.34264        7.55346        0.08996
C          2.57189        7.30822       -0.76048
O          2.99106        5.90617       -0.61738
C          4.22626        5.65806       -0.15170
O          5.05958        6.50645        0.12153
C          4.43072        4.15626        0.00270
C          5.88146        3.65543        0.12587
C          6.71901        4.06862        1.36804
C          5.96718        4.47087        2.63234
C          6.87330        4.70987        3.84204
C          6.15170        5.21446        5.07588
Br         5.47088        7.04130        4.76444
Br         7.75063        3.00714        4.38327
N          7.57798        5.15345        0.83786
C          7.54867        5.10935       -0.51476
N          8.27524        5.96942       -1.23706
N          6.75728        4.13449       -0.99283
C          6.83128        3.46863       -2.34902
C          5.89343        4.14970       -3.38940
C          5.92966        5.67139       -3.65963
C          7.08171        6.13161       -4.56986
C          4.59668        6.08785       -4.30533
C          8.30164        3.40341       -2.82703
O          9.08366        2.80625       -1.79845
C          6.36223        2.00656       -2.20071
H          0.99533        8.58374       -0.06825
H          1.56632        7.43176        1.15793
H          0.52546        6.87293       -0.18086
H          3.41437        7.95034       -0.47721
H          2.36079        7.43720       -1.83087
H          3.93132        3.65071       -0.83581
H          3.86924        3.83739        0.89621
H          5.84351        2.56198        0.09966
H          7.38393        3.22542        1.61495
H          5.24834        3.67793        2.88890
H          5.39640        5.39643        2.45405
H          7.71648        5.37125        3.60645
H          6.82507        5.29698        5.93255
H          5.28346        4.59952        5.33435
H          7.50895        6.07503        1.26598
H          8.93281        6.57699       -0.76422
H          8.04914        6.16719       -2.20421
H          4.86763        3.89770       -3.07832
H          6.04168        3.61766       -4.34439
H          5.98823        6.20163       -2.69206
H          7.02403        5.62640       -5.54584
H          8.09005        5.92421       -4.17889
H          7.02027        7.21251       -4.75619
H          4.44930        5.57048       -5.26533
H          4.57688        7.16789       -4.50432
H          3.74288        5.84325       -3.65813
H          8.70748        4.38748       -3.09915
H          8.29576        2.79243       -3.74618
H          9.98023        2.65449       -2.13495
H          5.31028        1.93602       -1.89715
H          6.99221        1.45008       -1.49720
H          6.44427        1.52030       -3.18088
