60

C          5.24456       -2.52964       -2.85956
C          6.45904       -1.77124       -2.31528
C          7.17698       -0.87558       -3.33979
C          6.31037        0.17626       -4.04860
C          5.59145        1.17654       -3.13280
N          6.50049        2.05781       -2.35699
C          6.93231        1.74175       -1.11489
N          8.20782        1.93922       -0.68132
C          8.25856        1.55826        0.63444
N          7.09621        1.13007        1.04403
N          6.26338        1.24807       -0.04654
C          4.82061        1.06289        0.17172
C          4.00805        2.35855        0.04969
C          4.47338        3.49554        0.94657
F          5.69300        4.02231        0.46263
C          7.32580        3.00443       -3.09650
O          8.62167        2.45364       -3.29665
C          9.39292        3.11147       -4.33271
C         10.67558        2.32742       -4.55019
C         10.46323        0.89851       -5.06515
C         11.77385        0.12997       -5.26525
C         11.57451       -1.29779       -5.78446
C         12.88635       -2.07294       -5.95610
C         12.69183       -3.48392       -6.51633
H          4.84264       -3.21974       -2.10615
H          5.51220       -3.12656       -3.74334
H          4.42379       -1.85950       -3.15547
H          7.19403       -2.49440       -1.93081
H          6.15895       -1.18172       -1.43190
H          7.62213       -1.51402       -4.11894
H          8.03115       -0.37813       -2.85279
H          5.52343       -0.31539       -4.64224
H          6.93098        0.72335       -4.77466
H          4.94251        0.64820       -2.42476
H          4.94000        1.83739       -3.72159
H          8.95373        2.18856       -1.34147
H          9.15048        1.60792        1.24972
H          4.76020        0.65301        1.18716
H          4.44682        0.29177       -0.51569
H          2.97030        2.10886        0.32141
H          3.97691        2.71389       -0.99107
H          4.65290        3.16778        1.98208
H          3.74470        4.31776        0.94704
H          7.38415        3.95015       -2.52629
H          6.82627        3.19792       -4.05947
H          9.60446        4.15183       -4.03014
H          8.78268        3.13717       -5.25462
H         11.25088        2.31236       -3.60872
H         11.28849        2.89869       -5.26637
H          9.90900        0.93621       -6.01969
H          9.82172        0.34449       -4.36113
H         12.32569        0.09688       -4.30915
H         12.42107        0.68515       -5.96607
H         11.04188       -1.26416       -6.75132
H         10.91181       -1.85076       -5.09399
H         13.40324       -2.12908       -4.98306
H         13.55751       -1.50317       -6.62040
H         12.05370       -4.09311       -5.85849
H         13.65107       -4.00810       -6.62293
H         12.21611       -3.45901       -7.50780
