66

N          0.31969       -0.54950        2.87410
C          1.58334       -0.78791        3.58990
C          2.17338       -2.16890        3.26428
C          2.49610       -2.37998        1.76696
C          1.28284       -2.75492        0.91125
O          0.65814       -3.96836        1.30479
C          1.26878       -5.09753        0.70133
N          1.03333       -5.07640       -0.74521
C          1.36671       -3.90395       -1.32059
N          1.42429       -3.71491       -2.66090
C          1.79771       -4.61972       -3.68804
C          2.51481       -5.79979       -3.47763
C          2.87541       -6.59767       -4.56532
C          2.53598       -6.20616       -5.86042
C          1.84289       -5.01332       -6.08556
C          1.46862       -4.21379       -5.00296
O          0.81149       -3.01748       -5.08224
C          0.53687       -2.47804       -6.38526
N          1.68331       -2.87368       -0.51474
C          0.01469       -5.98588       -1.31719
C         -1.40893       -5.66432       -0.85028
C         -2.42821       -6.64039       -1.45473
C         -3.83917       -6.51244       -0.86095
C         -4.53167       -5.17023       -1.13159
C         -5.92783       -5.13968       -0.51410
O         -6.64127       -3.92003       -0.82974
C         -6.39467       -2.85248       -0.01310
O         -5.59003       -2.87127        0.90211
C         -7.24937       -1.70443       -0.40541
C         -7.23023       -0.56320        0.29203
O          3.33612       -2.41431        4.05524
H          0.08456        0.44274        2.89587
H         -0.44934       -1.02879        3.34672
H          1.50247       -0.71213        4.68872
H          2.30422       -0.01701        3.26612
H          1.46021       -2.94923        3.57708
H          3.25720       -3.17236        1.69890
H          2.94725       -1.46148        1.35116
H          0.50887       -1.97814        1.01277
H          0.80016       -5.98918        1.12769
H          2.35529       -5.12063        0.88770
H          1.22722       -2.77406       -3.00102
H          2.80173       -6.09238       -2.46787
H          3.42897       -7.51997       -4.39525
H          2.81715       -6.82580       -6.71157
H          1.59590       -4.71357       -7.10252
H         -0.13831       -3.13750       -6.94994
H          1.46776       -2.31764       -6.94916
H          0.04337       -1.51783       -6.20780
H          2.21430       -2.10435       -0.91159
H          0.30450       -7.00803       -1.03188
H          0.08606       -5.93540       -2.41017
H         -1.64954       -4.62627       -1.12866
H         -1.46684       -5.70888        0.24954
H         -2.07583       -7.67270       -1.29334
H         -2.46996       -6.49928       -2.54827
H         -3.78560       -6.68440        0.22789
H         -4.45883       -7.32867       -1.26595
H         -4.61324       -4.99853       -2.21750
H         -3.94901       -4.33791       -0.70950
H         -5.87155       -5.24466        0.57918
H         -6.56055       -5.93840       -0.92437
H         -7.89892       -1.84742       -1.26989
H         -6.57813       -0.45686        1.16057
H         -7.86530        0.28007        0.02257
H          3.93450       -1.65203        3.98278
