54

Br         2.13336        0.94882        0.99423
C          3.67133        0.03737        0.19240
C          4.09468        0.73641       -1.09326
C          5.28414        0.01650       -1.74209
C          5.81940        0.60605       -3.07043
C          6.14433        2.12276       -3.00904
N          4.95057        2.82209       -3.49262
C          4.10852        2.13152       -4.23841
S          4.50855        0.48270       -4.41202
C          2.92644        2.75318       -4.89298
C          1.62144        1.96604       -4.66836
O          0.62277        2.70966       -5.33594
C          6.95324       -0.21954       -3.57974
N          6.96582       -0.94316       -4.65514
N          8.18066       -1.61241       -4.67953
C          8.82817       -1.23729       -3.60289
O          8.09531       -0.33659       -2.83593
S         10.40819       -1.74701       -3.13121
C         10.61117       -0.96171       -1.48513
C         11.92143       -1.47813       -0.88638
C         12.22495       -0.83174        0.47159
C         13.51230       -1.36899        1.10710
C         13.86630       -0.69250        2.43519
C         15.14408       -1.24442        3.07788
C         15.51687       -0.54004        4.38462
H          3.35025       -0.99567        0.01807
H          4.45786        0.05011        0.95528
H          4.34363        1.78290       -0.85782
H          3.23681        0.75569       -1.78268
H          5.03144       -1.03930       -1.92868
H          6.14173        0.00598       -1.04761
H          6.99583        2.37446       -3.65962
H          6.37667        2.44069       -1.98403
H          4.82658        3.82396       -3.35030
H          3.11348        2.81054       -5.97938
H          2.79931        3.78634       -4.53615
H          1.42125        1.87434       -3.58455
H          1.72714        0.94573       -5.08374
H         -0.24439        2.30660       -5.17114
H          9.75259       -1.23423       -0.85656
H         10.63246        0.12891       -1.61510
H         12.75208       -1.27628       -1.58248
H         11.86514       -2.57285       -0.77409
H         11.37796       -1.00126        1.15901
H         12.30566        0.26197        0.34633
H         14.34858       -1.24013        0.39837
H         13.41312       -2.45710        1.26345
H         13.02495       -0.80480        3.14189
H         13.98090        0.39381        2.27192
H         15.97725       -1.15585        2.36050
H         15.01877       -2.32470        3.26227
H         15.69208        0.53413        4.22386
H         16.43151       -0.96284        4.82146
H         14.71689       -0.63589        5.13382
