91

O          5.61985        0.87139       -1.01442
C          5.14580        1.29074        0.26002
C          3.62623        1.07695        0.37017
N          2.82465        2.18646       -0.44080
C          2.57444        3.56946        0.23270
C          3.67068        4.58541        0.09931
C          3.65851        5.50550       -0.96070
C          4.66831        6.45581       -1.10003
C          5.72078        6.53245       -0.17552
C          5.70854        5.63723        0.90923
C          4.70120        4.68595        1.04855
C          6.80683        7.56371       -0.31268
C          3.23258        2.34998       -1.88841
C          2.04745        2.75650       -2.76392
O          2.49093        2.62702       -4.09748
C          1.87670        3.54342       -5.01701
C          2.60663        4.88735       -5.01114
O          1.79173        5.79309       -5.73341
C          2.21044        7.10362       -5.83591
C          3.41314        7.59790       -5.31837
C          3.72477        8.95033       -5.48342
C          2.87635        9.84034       -6.15846
C          1.67314        9.31274       -6.65621
C          1.34003        7.96952       -6.50455
C          3.27963       11.30809       -6.35425
C          4.55311       11.44377       -7.25684
C          4.69074       10.85486       -8.69468
C          3.59353       11.33167       -9.66602
C          6.05002       11.37063       -9.21805
C          4.73237        9.31283       -8.71183
C          2.11299       12.16813       -6.88188
C          3.65961       11.90806       -4.97575
C          3.16313       -0.26410       -0.24721
C          3.73491       -1.55489        0.41345
C          2.68424       -2.26467        1.28060
C          4.29278       -2.50115       -0.65878
C          3.21684        1.17417        1.84225
H          6.58218        0.98443       -1.04080
H          5.39011        2.34753        0.45358
H          5.60310        0.69350        1.06834
H          1.88517        1.76314       -0.46939
H          2.33521        3.35750        1.27794
H          1.65741        3.93334       -0.24741
H          2.83855        5.49845       -1.68111
H          4.62825        7.15844       -1.93447
H          6.49594        5.69719        1.66288
H          4.70978        4.02946        1.92097
H          6.79198        8.03831       -1.30090
H          7.79995        7.12070       -0.15593
H          6.68678        8.35655        0.44122
H          3.63223        1.40009       -2.24859
H          4.03732        3.09104       -1.92962
H          1.71391        3.78639       -2.55045
H          1.18243        2.08316       -2.57278
H          0.81032        3.69313       -4.77922
H          1.94043        3.06960       -6.00446
H          3.60524        4.78181       -5.47075
H          2.75248        5.23972       -3.97107
H          4.12130        6.94558       -4.80725
H          4.67883        9.30339       -5.08948
H          0.97352        9.95598       -7.18782
H          0.40587        7.57402       -6.90426
H          5.40141       11.03818       -6.67875
H          4.74759       12.52772       -7.33327
H          3.47293       12.42445       -9.64459
H          2.62066       10.87274       -9.44547
H          3.85653       11.04791      -10.69579
H          6.06709       12.46918       -9.27390
H          6.25302       10.97966      -10.22559
H          6.87654       11.05544       -8.56349
H          3.76785        8.86334       -8.44693
H          5.48741        8.92423       -8.01237
H          4.99857        8.95918       -9.71914
H          1.71794       11.83465       -7.84683
H          2.45252       13.20459       -7.01397
H          1.28136       12.18124       -6.16243
H          4.52680       11.40488       -4.52719
H          2.81753       11.82622       -4.27397
H          3.91444       12.97234       -5.08096
H          3.43292       -0.28009       -1.30972
H          2.05968       -0.30001       -0.19670
H          4.57774       -1.27100        1.06625
H          1.84425       -2.61485        0.66174
H          2.27083       -1.61508        2.06476
H          3.11668       -3.14471        1.77518
H          3.49822       -2.83073       -1.34552
H          4.72529       -3.40068       -0.20074
H          5.07505       -2.01005       -1.25278
H          3.62975        2.05519        2.34800
H          3.60387        0.29390        2.36795
H          2.12516        1.16864        1.97077
