46

O          5.03625       -0.33009        0.76659
C          5.57172        0.20593       -0.43182
C          4.53511        1.18804       -0.96075
O          5.07990        1.79008       -2.14749
C          4.26719        2.83223       -2.66838
O          4.90556        3.37056       -3.80603
C          6.06095        4.17489       -3.55336
C          7.32675        3.32327       -3.29891
N          7.18206        2.03718       -4.12539
C          8.28399        1.99344       -5.16613
C          8.75829        3.44340       -5.24596
C          8.63560        3.96881       -3.79548
C          9.85363        3.62482       -2.91908
C          9.80505        4.22010       -1.50700
C         11.05784        3.86318       -0.69835
C         11.01661        4.42140        0.72616
S         12.51919        3.95347        1.60733
O         12.49674        2.52691        1.86746
O         13.63636        4.58274        0.94999
O         12.28235        4.72208        3.01884
H          5.60183       -1.05293        1.07743
H          5.75558       -0.57854       -1.18993
H          6.52385        0.74456       -0.25277
H          4.32734        1.95937       -0.19837
H          3.59206        0.66384       -1.19072
H          4.11143        3.61665       -1.90096
H          3.29810        2.44386       -3.02211
H          5.90033        4.84956       -2.69785
H          6.18540        4.78674       -4.45827
H          7.36707        3.01461       -2.24963
H          6.22506        2.07274       -4.52921
H          7.17310        1.21980       -3.50629
H          7.88047        1.58654       -6.09955
H          9.06303        1.31861       -4.79287
H          8.11723        4.01689       -5.93079
H          9.78352        3.50908       -5.62893
H          8.51066        5.06311       -3.80526
H         10.75571        3.99410       -3.43170
H          9.97977        2.52947       -2.84666
H          8.91123        3.86231       -0.96560
H          9.70336        5.31635       -1.57565
H         11.95176        4.25037       -1.21048
H         11.16966        2.76811       -0.65285
H         10.17595        4.02307        1.31140
H         10.98082        5.51983        0.74588
H         12.21832        4.03666        3.71176
