55

C          0.59715        4.34320       -3.25619
C          2.11846        4.26747       -3.40724
C          2.75155        3.14959       -2.57101
C          4.27192        3.04970       -2.73914
C          4.89428        1.93879       -1.88505
C          6.38500        1.72975       -2.12757
C          7.02652        0.62319       -1.26414
N          8.37696        1.15757       -1.02709
C          8.38635        2.49721       -1.22380
N          9.42286        3.29142       -0.92233
C          9.33217        4.75486       -1.04841
C         10.14766        5.33038       -2.21863
C          9.76273        4.87013       -3.61164
Br         7.89586        5.26051       -4.11129
Br        10.08270        7.28649       -2.05299
C         10.68117        2.71292       -0.40247
C         11.56764        2.06493       -1.47332
C         12.82138        1.42694       -0.86952
C         13.68413        0.70612       -1.91118
C         15.01884        0.21075       -1.34025
N         15.84382        1.34337       -0.89708
N          7.21518        2.90458       -1.75401
H          0.17525        5.15297       -3.86590
H          0.30652        4.52824       -2.21165
H          0.11695        3.40554       -3.57230
H          2.56724        5.23366       -3.12047
H          2.37677        4.11604       -4.46896
H          2.29336        2.18334       -2.84481
H          2.51040        3.30785       -1.50544
H          4.72606        4.02173       -2.47705
H          4.51124        2.87337       -3.80255
H          4.38989        0.98253       -2.10379
H          4.73136        2.14319       -0.81389
H          6.55857        1.51799       -3.19826
H          7.07088       -0.34207       -1.78058
H          6.48523        0.49917       -0.31185
H          9.01012        0.71827       -0.36791
H          9.70608        5.19254       -0.11294
H          8.28011        5.05172       -1.13951
H         11.21446        5.09525       -2.08973
H          9.86880        3.78213       -3.70712
H         10.36999        5.36434       -4.37513
H         10.44349        1.99386        0.39952
H         11.21590        3.53378        0.09496
H         11.86289        2.82808       -2.21135
H         10.98726        1.30947       -2.02824
H         12.52867        0.70903       -0.08274
H         13.43899        2.19304       -0.37437
H         13.89008        1.38861       -2.75503
H         13.13368       -0.14939       -2.33616
H         15.51018       -0.43539       -2.09160
H         14.82420       -0.42477       -0.46163
H         16.28258        1.80084       -1.69785
H         16.60505        1.02416       -0.29876
H          7.19394        3.73376       -2.35857
