27

N          0.95107        0.19770       -0.40159
C          2.26965       -0.07507        0.15367
C          3.28193        1.05761       -0.12078
C          3.87038        0.78019       -1.52214
N          3.62585       -0.68195       -1.65704
C          2.81054       -1.16410       -0.77217
Br         2.27013       -2.92722       -0.75530
C          5.34551        1.17487       -1.67409
C          6.14470        0.61343       -2.87061
C          5.56408        0.74680       -4.27785
C          5.19170        2.18262       -4.77268
Br         6.68431        3.43188       -4.63349
F          4.73883        2.14860       -6.03366
F          4.16693        2.65481       -3.99392
Br         6.78660       -0.07870       -5.55545
F          4.35912        0.02063       -4.33117
H          0.71711        1.18781       -0.39890
H          0.20558       -0.33290        0.04347
H          2.27535       -0.39417        1.20746
H          4.08190        1.01924        0.63136
H          2.81449        2.04762       -0.05948
H          3.26747        1.25293       -2.31204
H          3.93822       -1.19646       -2.48517
H          5.88847        0.86112       -0.76919
H          5.36949        2.27419       -1.68369
H          6.33276       -0.46244       -2.73367
H          7.13453        1.08666       -2.86639
