77

C          0.61810        0.29966       -0.01994
C          2.14671        0.23104        0.00412
C          2.69990       -0.50272        1.23004
C          4.22939       -0.57433        1.26470
C          4.78375       -1.30386        2.49233
C          6.31370       -1.36963        2.52597
C          6.87249       -2.09105        3.75644
C          8.40277       -2.14951        3.78536
C          8.97092       -2.86483        5.01526
C         10.50169       -2.91188        5.03211
C         11.08773       -3.63025        6.25187
C         12.61924       -3.66757        6.24195
C         13.23006       -4.40332        7.43837
C         14.76504       -4.41666        7.40601
C         15.36927       -5.19984        8.58227
C         16.90374       -5.25356        8.70334
C         17.51982       -3.82020        8.86725
N         18.96731       -3.74710        8.84187
C         19.56328       -4.35810        7.67185
C         19.02425       -5.76176        7.34296
N         17.50641       -5.69151        7.31430
C         16.92737       -6.93390        6.55029
O         16.53847       -7.87246        7.16715
C         16.94735       -6.76068        5.06115
C         17.36875       -6.10403        9.90293
C         16.95459       -7.58212       10.06813
C         17.30629       -8.06953       11.43204
C         18.19647       -9.02149       11.73496
F         18.91072       -9.66854       10.81287
F         18.47249       -9.43675       12.95706
F         16.64335       -7.46830       12.45732
H          0.25135        0.83132       -0.90877
H          0.22955        0.82405        0.86581
H          0.17485       -0.70734       -0.02779
H          2.56272        1.25240       -0.02408
H          2.50870       -0.26842       -0.91050
H          2.28522       -1.52596        1.25884
H          2.33680       -0.00404        2.14614
H          4.64219        0.44951        1.23303
H          4.59152       -1.07454        0.34912
H          4.37369       -2.32867        2.52380
H          4.42039       -0.80449        3.40771
H          6.72255       -0.34442        2.48910
H          6.67689       -1.87278        1.61244
H          6.46699       -3.11740        3.79380
H          6.50947       -1.58846        4.67006
H          8.80646       -1.12247        3.74391
H          8.76497       -2.65370        2.87196
H          8.57281       -3.89382        5.05656
H          8.61032       -2.36268        5.92985
H         10.89720       -1.88166        4.99285
H         10.85924       -3.40863        4.11269
H         10.69612       -4.66141        6.29428
H         10.74004       -3.13372        7.17409
H         13.00701       -2.63423        6.21236
H         12.96123       -4.14739        5.30698
H         12.85525       -5.44064        7.46821
H         12.89611       -3.92969        8.37677
H         15.12292       -3.37460        7.39674
H         15.07197       -4.85699        6.43782
H         14.96799       -6.22376        8.57409
H         15.01421       -4.75181        9.52463
H         17.14915       -3.39982        9.81168
H         17.13190       -3.17251        8.06053
H         19.40144       -4.04407        9.71283
H         20.65335       -4.41490        7.79181
H         19.37414       -3.70689        6.79676
H         19.29871       -6.52017        8.08433
H         19.36775       -6.09500        6.35352
H         17.27174       -4.89544        6.69777
H         17.68182       -6.02836        4.70573
H         15.94673       -6.42473        4.74479
H         17.12709       -7.73649        4.59504
H         16.96786       -5.55409       10.77030
H         18.46137       -6.04002       10.01032
H         17.44597       -8.22901        9.33368
H         15.87038       -7.70631        9.92181
