52

C          1.23484       -2.01591       -1.21982
C          2.70584       -2.17628       -1.60552
C          2.86695       -2.82206       -3.00039
C          4.31620       -2.92604       -3.39549
O          4.99251       -2.02945       -3.86961
O          4.82995       -4.16716       -3.11955
C          6.21472       -4.35550       -3.48009
C          7.13506       -3.67783       -2.45923
C          8.65311       -3.84506       -2.70641
C          9.44446       -3.63069       -1.40307
C          9.44253       -2.11820       -1.24877
N          9.68212       -1.61187       -2.68743
C          9.30857       -2.81776       -3.67016
C          8.47327       -2.37734       -4.86354
C          9.14409       -1.54274       -5.95925
O          8.31590       -1.68081       -7.09925
C          8.75480       -0.90851       -8.20184
C          7.83108       -1.19522       -9.38262
F          7.85376       -2.50268       -9.73058
F          6.54955       -0.85973       -9.11429
F          8.24299       -0.46901      -10.45104
C         11.02865       -0.92974       -2.86288
C         12.34009       -1.71428       -2.53341
F         12.39812       -2.03204       -1.21613
F         12.39604       -2.85888       -3.26739
F         11.11385       -0.53212       -4.14787
F         10.98321        0.16847       -2.07434
H          1.13855       -1.55869       -0.22593
H          0.72053       -2.98698       -1.19144
H          0.70276       -1.37489       -1.93693
H          3.22236       -2.79910       -0.85767
H          3.20464       -1.19469       -1.60775
H          2.36865       -2.19520       -3.75337
H          2.40541       -3.81859       -3.00869
H          6.36236       -3.97365       -4.49758
H          6.36062       -5.44396       -3.47676
H          6.90356       -4.11420       -1.47556
H          6.85289       -2.61601       -2.40705
H          8.85494       -4.84764       -3.11364
H         10.47177       -4.01280       -1.48419
H          8.97484       -4.11396       -0.53829
H         10.20320       -1.70168       -0.58459
H          8.46072       -1.73328       -0.95056
H          9.01140       -0.85272       -2.88365
H         10.28134       -3.20356       -3.99660
H          7.52683       -1.90842       -4.54649
H          8.18301       -3.31858       -5.35727
H         10.16535       -1.91687       -6.17509
H          9.22800       -0.47540       -5.67952
H          9.78261       -1.17454       -8.50718
H          8.71092        0.17489       -7.98966
H         13.18936       -1.06208       -2.79717
