84

O          3.40313       -0.20133       -0.43647
C          4.46518       -0.50282       -1.34998
C          3.86852       -0.88586       -2.70819
C          2.94594        0.20470       -3.29371
C          1.48304        0.11704       -2.81830
C          0.76003       -1.09265       -3.48245
C         -0.18888       -1.90884       -2.59046
C          0.55513       -2.82636       -1.61149
C         -0.39308       -3.76150       -0.85122
C          0.32549       -4.67347        0.14962
C         -0.60041       -5.70414        0.80472
C          0.10392       -6.60366        1.82630
C         -0.81594       -7.66524        2.43867
C         -0.12906       -8.54981        3.48461
C         -1.04532       -9.63798        4.05398
C         -0.37921      -10.49654        5.13419
C         -1.27787      -11.62161        5.65505
C         -0.58437      -12.47248        6.72639
N         -1.41574      -13.55945        7.22977
C         -1.51528      -14.81214        6.66948
C         -2.47459      -15.53134        7.37107
C         -2.97729      -14.68047        8.38539
C         -2.30901      -13.46736        8.27248
N         -0.00677       -0.42395       -4.56549
C         -0.12399        0.86304       -4.41883
C          0.60434        1.35654       -3.22678
C          1.30405        2.71383       -3.44104
C          1.80705        3.34026       -2.12388
C          2.72299        4.51231       -2.38448
C          4.11149        4.36681       -2.25627
C          4.97425        5.42641       -2.54594
C          4.45620        6.65130       -2.97260
C          3.07340        6.81060       -3.10066
C          2.21431        5.75018       -2.80715
O          4.92493       -1.21497       -3.60990
H          3.77691       -0.11637        0.45345
H          5.08547       -1.33901       -0.99011
H          5.12300        0.37975       -1.48957
H          3.31214       -1.82951       -2.58734
H          2.98838        0.11195       -4.39159
H          3.37084        1.18809       -3.04552
H          1.47020        0.00441       -1.72904
H          1.47722       -1.77599       -3.96396
H         -0.83402       -2.52869       -3.23671
H         -0.86073       -1.22422       -2.04604
H          1.14188       -2.22316       -0.89919
H          1.28518       -3.43520       -2.17288
H         -0.94392       -4.38247       -1.57922
H         -1.15658       -3.16523       -0.32236
H          0.80306       -4.05569        0.92977
H          1.14798       -5.20148       -0.36427
H         -1.05477       -6.33246        0.01856
H         -1.44048       -5.18299        1.29647
H          0.53051       -5.97902        2.63062
H          0.96295       -7.10206        1.34343
H         -1.22136       -8.30226        1.63305
H         -1.68922       -7.17088        2.89925
H          0.24669       -7.91766        4.30836
H          0.76262       -9.02270        3.03663
H         -1.38926      -10.28979        3.23214
H         -1.95519       -9.17085        4.46935
H         -0.07191       -9.85026        5.97514
H          0.55279      -10.93030        4.73076
H         -1.58330      -12.27605        4.82249
H         -2.20609      -11.20318        6.07706
H         -0.29245      -11.84690        7.58327
H          0.34041      -12.91404        6.32533
H         -0.89176      -15.09334        5.82661
H         -2.76187      -16.55896        7.17484
H         -3.73114      -14.92055        9.12784
H         -2.39160      -12.55352        8.85226
H         -0.47115       -0.94873       -5.30712
H         -0.71786        1.45542       -5.11697
H         -0.16918        1.51719       -2.44591
H          0.59675        3.40698       -3.92258
H          2.14016        2.59781       -4.14532
H          2.34160        2.58660       -1.52593
H          0.93682        3.65359       -1.52420
H          4.52001        3.41415       -1.90944
H          6.05092        5.29725       -2.43166
H          5.12611        7.48151       -3.19733
H          2.66254        7.76707       -3.42531
H          1.13490        5.89177       -2.90106
H          5.50805       -0.44317       -3.70705
