57

C         13.03669       -2.80054        1.28918
C         11.75615       -1.97861        1.45436
C         11.84996       -0.58719        0.81811
C         10.58197        0.25571        0.99690
C         10.68703        1.63123        0.32447
C          9.45670        2.48893        0.55451
O          9.63248        3.73346       -0.16952
C          8.61265        4.66892        0.03258
C          8.86610        5.83831       -0.84979
N          9.84470        5.82532       -1.69587
C          9.98651        7.04679       -2.50810
C          8.71309        7.85189       -2.14116
C          8.11278        7.11452       -0.91725
N          7.76502        7.81854       -3.27247
N          6.49769        8.29464       -2.82847
N          8.23136        8.54798       -4.40130
C         11.32694        7.71541       -2.21263
O         12.31315        6.74655       -2.48088
C         13.66411        7.21371       -2.28659
C         14.61905        6.08896       -2.64688
C         16.09109        6.47609       -2.45146
C         17.05414        5.34746       -2.82981
H         12.93702       -3.79369        1.74700
H         13.89539       -2.30205        1.76315
H         13.28472       -2.94837        0.22758
H         11.52091       -1.87295        2.52703
H         10.90605       -2.52400        1.01050
H         12.06914       -0.69350       -0.25887
H         12.71007       -0.04584        1.25000
H         10.37805        0.38306        2.07418
H          9.71690       -0.29136        0.58418
H         10.83387        1.50450       -0.76066
H         11.57050        2.16869        0.70562
H          9.32138        2.71467        1.62790
H          8.54096        1.98992        0.18818
H          8.54779        5.02331        1.08404
H          7.60292        4.27390       -0.21772
H         10.49261        5.03333       -1.75561
H          9.97208        6.74485       -3.56553
H          8.97908        8.89757       -1.87888
H          7.02950        6.97513       -1.06495
H          8.22579        7.67096        0.02611
H          5.81187        7.98709       -3.51953
H          6.48007        9.32437       -2.83349
H          8.70185        7.93072       -5.06121
H          8.84280        9.33548       -4.15100
H         11.36844        8.06183       -1.15900
H         11.42831        8.60636       -2.86429
H         13.79342        7.52570       -1.23283
H         13.83524        8.10026       -2.92561
H         14.44386        5.79599       -3.69469
H         14.38009        5.20800       -2.02833
H         16.25777        6.76693       -1.40094
H         16.31810        7.37065       -3.05500
H         16.87661        4.44817       -2.22181
H         18.09855        5.64953       -2.67797
H         16.94098        5.06223       -3.88593
