55

C          2.68115       -1.14927       -0.06383
C          2.47548       -1.27007       -1.57700
N          3.06849       -0.18448       -2.37688
C          2.54725        1.06163       -2.49826
O          3.10550        1.99144       -3.08920
C          1.15497        1.33257       -1.85050
C          0.45094        2.41743       -2.60345
C         -0.50840        2.11322       -3.57200
C         -1.12236        3.10605       -4.32302
C         -0.77879        4.45499       -4.11772
C          0.17302        4.71450       -3.13771
N          0.76579        3.73316       -2.41196
C          1.71874        4.16909       -1.35135
C          1.00894        4.41109       -0.01519
C          2.00962        4.88594        1.04671
C          1.32331        5.11824        2.39582
S          2.56116        5.64242        3.61559
O          3.46426        4.54236        3.86312
O          3.04486        6.95558        3.26045
Cl         1.34824        5.84877        5.28905
C         -1.38274        5.56552       -4.88304
C         -0.61010        6.65396       -5.31714
C         -1.23629        7.68004       -6.02761
N         -2.54432        7.68854       -6.31918
C         -3.27660        6.64514       -5.90517
C         -2.75122        5.56529       -5.19251
C          4.37150       -0.43741       -3.03037
C          5.57634       -0.26751       -2.10484
H          2.27035       -2.03598        0.43759
H          2.17508       -0.26964        0.35697
H          3.74550       -1.07790        0.19070
H          1.40452       -1.36021       -1.81475
H          2.93726       -2.19798       -1.93892
H          1.31061        1.59604       -0.79507
H          0.51650        0.44140       -1.85656
H         -0.75390        1.06520       -3.73912
H         -1.85133        2.83988       -5.08910
H          0.48286        5.72908       -2.89333
H          2.18981        5.08889       -1.71989
H          2.51267        3.41903       -1.29005
H          0.51096        3.48651        0.31929
H          0.21354        5.16144       -0.15170
H          2.49185        5.81860        0.71653
H          2.80850        4.13840        1.16857
H          0.86979        4.20532        2.80511
H          0.57333        5.91998        2.36214
H          0.46676        6.69258       -5.14370
H         -0.65638        8.53496       -6.38471
H         -4.34131        6.67550       -6.15043
H         -3.40896        4.76023       -4.86116
H          4.44182        0.26106       -3.87188
H          4.32994       -1.45849       -3.43599
H          5.60485        0.74501       -1.68161
H          6.50133       -0.41951       -2.67681
H          5.57409       -0.99396       -1.28180
