43

C          1.57227       -1.65318        0.50526
C          3.04000       -1.53767        0.15043
O          3.76043       -0.87921        1.24596
P          4.61419        0.46123        1.00558
O          4.34345        1.16165       -0.27040
O          4.41906        1.27028        2.37330
C          3.14741        1.95397        2.64098
C          3.20607        3.40323        2.20120
C          6.36857       -0.02529        1.19134
C          6.72339       -0.80935        2.45904
C          8.17141       -1.35952        2.48617
C          9.23496       -0.33134        2.64773
N         10.01279       -0.20214        3.69520
N         10.82245        0.86557        3.40613
C         10.55812        1.40186        2.20531
N         11.14948        2.50512        1.66667
C         10.97726        2.93520        0.27170
C         11.82523        2.15602       -0.77743
F         13.13737        2.28864       -0.47152
F         11.48204        0.83382       -0.68751
F          9.65729        2.75223       -0.04130
F         11.26767        4.24058        0.19402
Br        12.56081        3.26951        2.64152
N          9.54969        0.64727        1.70347
H          1.05047       -2.21859       -0.27962
H          1.10304       -0.66315        0.57796
H          1.43408       -2.18229        1.45717
H          3.19176       -0.95709       -0.76970
H          3.50228       -2.52885        0.03509
H          3.00231        1.85812        3.72473
H          2.33438        1.40968        2.13787
H          4.01962        3.93460        2.71324
H          2.26057        3.90212        2.45660
H          3.35751        3.47785        1.11723
H          6.91165        0.93137        1.11889
H          6.59585       -0.60818        0.28338
H          6.05531       -1.67807        2.54242
H          6.54388       -0.19237        3.35072
H          8.36890       -1.93564        1.56695
H          8.29375       -2.04983        3.33142
H         11.53243        1.17113        4.06724
H         11.62980        2.52354       -1.79749
H          9.09359        0.79364        0.80680
