84

C          1.16977        0.97290       -0.50962
C          2.67208        0.84664       -0.77058
C          3.11881       -0.59069       -1.05520
C          4.61972       -0.72218       -1.32863
C          5.07806       -2.16149       -1.58067
C          6.57801       -2.28350       -1.86559
C          7.05520       -3.72747       -2.04472
C          8.55382       -3.84560       -2.33829
C          9.04605       -5.29282       -2.43048
C         10.54564       -5.41486       -2.71768
C         11.03964       -6.86429       -2.75025
C         12.53948       -6.99430       -3.03302
C         13.02605       -8.44728       -3.02234
C         14.52734       -8.57822       -3.30386
C         14.96373      -10.04409       -3.27701
N         16.41122      -10.21440       -3.51114
N         17.26423      -10.19462       -2.43384
C         18.46164      -10.30385       -2.94049
N         18.42858      -10.38716       -4.31793
C         17.10824      -10.32263       -4.65529
N         16.67275      -10.37109       -5.94700
C         15.39161      -10.35635       -6.37776
C         14.28462      -10.34291       -6.86106
C         19.55528      -10.52829       -5.26755
C         20.90085      -10.68840       -4.56305
C         22.03906      -10.88442       -5.57486
P         23.54284      -11.49794       -4.72734
O         23.24469      -12.61288       -3.80406
O         24.55900      -11.93058       -5.88508
C         25.29186      -10.98613       -6.72307
C         25.49662      -11.61332       -8.08636
O         24.10591      -10.13998       -4.07177
C         25.13264      -10.22967       -3.02413
C         25.24634       -8.87720       -2.35564
H          0.88099        2.01281       -0.30388
H          0.86398        0.36505        0.35515
H          0.58526        0.62992       -1.37641
H          3.23187        1.23318        0.09786
H          2.95401        1.48861       -1.62228
H          2.55352       -0.98407       -1.91848
H          2.84588       -1.23155       -0.19813
H          5.18279       -0.30751       -0.47398
H          4.88687       -0.09635       -2.19837
H          4.50926       -2.58559       -2.42665
H          4.82284       -2.78184       -0.70343
H          7.14359       -1.81630       -1.04020
H          6.82595       -1.70029       -2.76981
H          6.48405       -4.20542       -2.85992
H          6.81778       -4.30217       -1.13209
H          9.12088       -3.32072       -1.54942
H          8.78533       -3.31731       -3.27979
H          8.47936       -5.82425       -3.21512
H          8.81466       -5.81380       -1.48487
H         11.10973       -4.85691       -1.94975
H         10.77631       -4.92532       -3.68006
H         10.47409       -7.42723       -3.51337
H         10.80937       -7.34692       -1.78454
H         13.10544       -6.41557       -2.28309
H         12.77050       -6.53743       -4.01089
H         12.45974       -9.02840       -3.77088
H         12.79688       -8.90167       -2.04348
H         15.10408       -8.01667       -2.55224
H         14.76091       -8.14241       -4.28914
H         14.43321      -10.63766       -4.03106
H         14.78680      -10.49638       -2.29297
H         19.37560      -10.33683       -2.35858
H         17.39769      -10.44660       -6.65954
H         13.29362      -10.34145       -7.26727
H         19.55945       -9.63843       -5.91854
H         19.35592      -11.41779       -5.88781
H         20.87212      -11.56685       -3.89964
H         21.11137       -9.80376       -3.94310
H         22.25397       -9.96358       -6.13642
H         21.78649      -11.67398       -6.29984
H         26.25288      -10.78380       -6.22761
H         24.73995      -10.03571       -6.79203
H         26.02369      -12.57165       -7.99730
H         26.10062      -10.94392       -8.71440
H         24.53774      -11.78930       -8.59181
H         26.08189      -10.52364       -3.49761
H         24.83604      -11.01806       -2.31820
H         25.52221       -8.09792       -3.07801
H         26.02510       -8.91774       -1.58173
H         24.30152       -8.59319       -1.87371
