43

C          0.53256       -0.04698       -0.44279
C          2.04510        0.00662       -0.21921
C          2.76494       -1.23558       -0.76420
C          4.31658       -1.18993       -0.69364
C          4.97610       -1.77919       -1.96316
C          4.78167       -3.30128       -2.09443
C          5.32094       -4.00650       -0.84656
N          4.73348       -3.39185        0.40958
C          4.96618       -1.89510        0.51316
C          4.57578       -1.49736        1.94898
C          4.82144       -0.00491        2.30490
F          4.74151        0.14107        3.64467
F          6.08407        0.32339        1.88585
F          3.26241       -1.80730        2.20186
F          5.32943       -2.28592        2.79413
C          5.46705       -3.84302       -3.36478
C          4.94628       -5.20035       -3.83629
C          5.62870       -5.62924       -5.15090
F          6.97648       -5.62589       -5.06329
F          5.24060       -6.89202       -5.47580
F          5.26838       -4.80811       -6.16514
O          5.17857       -6.16655       -2.81718
H          0.04710        0.86029       -0.06222
H          0.08059       -0.90521        0.07520
H          0.28774       -0.13187       -1.51110
H          2.23743        0.12281        0.85786
H          2.46426        0.89976       -0.71147
H          2.48544       -1.35070       -1.82327
H          2.35143       -2.13078       -0.26559
H          4.62831       -0.13517       -0.63040
H          6.05522       -1.54846       -1.96403
H          4.55040       -1.27864       -2.84348
H          3.70011       -3.51653       -2.17175
H          6.41124       -3.89126       -0.75960
H          5.08031       -5.07547       -0.83468
H          5.13320       -3.84457        1.24498
H          3.71668       -3.56479        0.43897
H          6.05741       -1.76406        0.45945
H          4.09357        0.66271        1.81796
H          6.55591       -3.90755       -3.21129
H          5.30543       -3.12165       -4.17840
H          3.86731       -5.12857       -4.07393
H          4.92780       -7.04307       -3.15562
