69

C          2.80253        1.66934        1.01320
C          3.54141        0.67234        0.14472
O          3.97423       -0.42525        0.98191
C          4.76119       -1.41609        0.30185
C          5.22796       -2.48420        1.30612
N          4.18638       -3.46855        1.61167
C          3.15116       -3.02385        2.54791
C          2.26317       -4.18854        2.98898
C          1.50928       -4.83154        1.81868
C          0.31852       -5.71840        2.19413
C          0.56830       -7.24655        2.50389
C          1.48059       -7.71812        3.70510
C          1.17834       -7.32754        5.20851
C         -0.18470       -7.70516        5.91779
C         -0.64823       -9.20843        6.08888
C          0.23152      -10.26326        6.87574
C          0.62252       -9.96659        8.37151
F         -0.45363       -9.60869        9.09093
F          1.15026      -11.08257        8.89998
F          1.54353       -8.98595        8.44339
F         -0.50170      -11.40477        6.87706
F          1.37741      -10.48723        6.18253
F         -1.85061       -9.13500        6.71360
F         -0.84178       -9.72768        4.84971
F         -0.10826       -7.15556        7.16012
F         -1.18156       -7.08001        5.24285
F          2.19665       -7.85337        5.93356
F          1.26995       -5.96661        5.30392
F          1.54570       -9.06538        3.63234
F          2.74289       -7.22950        3.46222
F         -0.63674       -7.84656        2.64278
F          1.17930       -7.76280        1.39401
F         -0.39241       -5.17399        3.23323
F         -0.52662       -5.74852        1.11171
C          3.72818       -2.33466        3.79639
N          4.69772       -1.25141        3.39513
C          5.82395       -1.83695        2.57451
C          5.19567       -0.41689        4.54232
C          4.04653        0.36309        5.18753
C          4.38190        1.71061        5.83927
C          5.15847        1.65044        7.20082
Br         6.99420        0.96543        7.05710
F          5.19688        2.86779        7.75805
F          4.46692        0.82547        8.02850
Br         5.29447        2.91829        4.58477
F          3.17175        2.28638        6.15444
H          2.45356        2.51096        0.40081
H          3.45574        2.07748        1.79797
H          1.92074        1.21091        1.48183
H          4.42864        1.12778       -0.32895
H          2.89403        0.27207       -0.65392
H          5.64049       -0.93012       -0.15926
H          4.16915       -1.90163       -0.49134
H          6.04417       -3.02856        0.80802
H          4.60689       -4.34274        1.93388
H          2.52632       -2.28228        2.01985
H          1.53573       -3.80845        3.72026
H          2.88111       -4.92752        3.51837
H          2.17633       -5.40571        1.16334
H          1.06503       -4.04050        1.19564
H          4.28041       -3.04067        4.43609
H          2.92908       -1.87116        4.38793
H          4.21432       -0.62783        2.69732
H          6.34903       -2.57293        3.19879
H          6.51079       -1.01410        2.33472
H          5.93882        0.27216        4.11973
H          5.70366       -1.08435        5.24855
H          3.53346       -0.23234        5.95617
H          3.29849        0.62303        4.42231
