102

C         -1.69456       11.22044      -10.90094
C         -0.23495       11.05254      -11.33046
C          0.71032       10.74145      -10.16455
C          2.17156       10.56093      -10.58718
C          3.12208       10.28201       -9.41829
C          4.57986       10.08583       -9.84660
C          5.54303        9.86053       -8.67691
C          6.99876        9.66365       -9.11164
C          7.97551        9.49009       -7.94446
C          9.43082        9.30812       -8.38695
C         10.42216        9.19220       -7.22468
C         11.87614        9.02880       -7.67891
C         12.88394        8.96761       -6.52656
C         14.33292        8.80627       -6.99860
C         15.35380        8.79442       -5.85354
C         16.79591        8.48789       -6.28471
C         17.40635        9.53107       -7.23044
C         18.85279        9.20078       -7.61988
C         19.46501       10.10999       -8.67483
C         20.89499        9.80446       -9.12883
C         21.43816       11.11726       -9.76539
C         20.35695       12.17495       -9.44241
N         19.55718       11.59640       -8.30002
C         20.10218       11.92603       -6.94786
C         19.09934       12.94332       -6.35031
O         18.05925       13.16988       -6.98423
N         19.42837       13.50075       -5.17823
C         18.54311       14.42126       -4.44519
C         17.67728       13.72225       -3.39030
C         18.46758       13.03409       -2.27042
C         17.56798       12.45015       -1.17824
C         21.70504       11.00680      -11.27331
C         22.20715       12.29919      -11.92199
C         22.48027       12.15033      -13.42289
C         22.76723       13.48787      -14.11508
N         21.60067       14.38088      -14.02440
H         -2.34467       11.44645      -11.75750
H         -1.80557       12.04008      -10.17512
H         -2.07870       10.30579      -10.42495
H          0.10795       11.96965      -11.83922
H         -0.16181       10.24735      -12.08123
H          0.36370        9.82855       -9.64828
H          0.64350       11.55203       -9.41708
H          2.51048       11.46594      -11.12218
H          2.24021        9.73662      -11.31898
H          2.77806        9.38595       -8.87212
H          3.06336       11.11506       -8.69557
H          4.91090       10.96797      -10.42314
H          4.64352        9.23128      -10.54329
H          5.21332        8.98272       -8.09365
H          5.48254       10.72007       -7.98603
H          7.31485       10.52860       -9.72172
H          7.06527        8.78609       -9.77879
H          7.66728        8.62384       -7.33292
H          7.90495       10.36833       -7.27846
H          9.72327       10.15920       -9.02757
H          9.50915        8.41087       -9.02607
H         10.14027        8.33837       -6.58403
H         10.33864       10.08875       -6.58521
H         12.14217        9.86658       -8.34804
H         11.96619        8.11458       -8.29182
H         12.62456        8.13289       -5.85252
H         12.79778        9.88497       -5.91785
H         14.56435        9.62164       -7.70556
H         14.42496        7.86881       -7.57580
H         15.04918        8.04035       -5.11005
H         15.32595        9.76443       -5.32584
H         16.82716        7.49850       -6.77305
H         17.43105        8.40315       -5.38654
H         17.34613       10.52416       -6.75291
H         16.80044        9.60225       -8.14860
H         18.88950        8.18672       -8.05129
H         19.50025        9.14522       -6.72747
H         18.79768       10.12754       -9.55238
H         20.89731        8.97173       -9.84312
H         21.50851        9.49298       -8.27052
H         22.37782       11.40009       -9.26619
H         19.65674       12.30101      -10.27987
H         20.73447       13.16388       -9.16096
H         18.60880       12.06518       -8.24037
H         21.11557       12.33518       -7.03312
H         20.13814       11.02222       -6.32768
H         20.29542       13.21590       -4.73293
H         17.91509       14.91861       -5.19419
H         19.18577       15.18276       -3.97999
H         17.01471       12.99742       -3.89126
H         17.01727       14.49096       -2.95665
H         19.16815       13.75883       -1.82069
H         19.09003       12.22593       -2.69299
H         16.97359       13.23602       -0.69085
H         18.15829       11.94947       -0.39973
H         16.86476       11.71160       -1.59053
H         20.77544       10.67801      -11.77355
H         22.43833       10.19990      -11.43367
H         23.12920       12.63154      -11.41310
H         21.47331       13.11247      -11.79699
H         21.60684       11.67954      -13.90896
H         23.32792       11.46664      -13.59130
H         23.09759       13.29153      -15.15205
H         23.60874       13.98708      -13.60857
H         20.88423       14.09520      -14.69413
H         21.85958       15.33438      -14.27679
