66

C          1.09305        0.08539       -0.92098
C          2.42272        0.28351       -0.19010
C          2.97071       -1.00328        0.43826
C          4.32229       -0.80750        1.13200
C          4.86428       -2.07460        1.80453
C          6.25559       -1.85878        2.41047
C          6.78441       -3.07868        3.16431
N          8.13677       -2.78968        3.66642
C          8.90958       -3.62914        4.36831
N          8.43335       -4.84530        4.71810
C          9.23521       -5.70674        5.55843
O         10.04212       -4.92761        6.43463
C         10.91053       -4.11312        5.69086
N         10.17212       -3.30136        4.69996
C         10.87597       -2.13265        4.14932
C         10.55487       -0.79946        4.83777
C         11.52840        0.30322        4.40280
N         10.96425        1.61581        4.66792
C         11.85479        2.71821        4.26053
C         11.21812        4.06945        4.47127
C         10.91373        4.90582        3.39171
C         10.34797        6.16912        3.57724
C         10.07022        6.61294        4.87119
C         10.35665        5.79692        5.96713
C         10.92727        4.53758        5.76584
O         11.22656        3.69703        6.82055
C          8.26182       -6.57724        6.40949
O          7.07056       -6.48098        6.18298
C          8.87460       -7.47214        7.43752
H          0.72718        1.02937       -1.34665
H          0.31501       -0.29567       -0.24324
H          1.19339       -0.63361       -1.74729
H          2.30083        1.04598        0.59799
H          3.17115        0.69174       -0.89061
H          3.06925       -1.77780       -0.34202
H          2.23686       -1.39574        1.16367
H          4.23250       -0.00842        1.88819
H          5.05845       -0.44380        0.39413
H          4.90741       -2.89571        1.06899
H          4.16271       -2.40173        2.59077
H          6.22356       -0.99932        3.10236
H          6.96654       -1.59678        1.60855
H          6.82724       -3.96026        2.50507
H          6.11288       -3.31673        4.00747
H          8.46494       -1.83490        3.56198
H          7.42563       -4.98851        4.86004
H          9.87994       -6.36448        4.94172
H         11.67782       -4.71381        5.16533
H         11.39539       -3.43571        6.40707
H         10.66923       -2.08217        3.06894
H         11.95066       -2.35386        4.24022
H         10.58220       -0.93044        5.93167
H          9.53552       -0.45716        4.59212
H         11.70643        0.23205        3.31442
H         12.51653        0.12568        4.88683
H         10.76970        1.72265        5.66688
H         12.07228        2.59360        3.18853
H         12.82916        2.67816        4.79272
H         11.13680        4.55431        2.38222
H         10.12898        6.80299        2.71847
H          9.62997        7.59696        5.03455
H         10.13972        6.13854        6.98279
H         11.03139        4.15975        7.65147
H          9.60870       -8.14508        6.96795
H          8.09707       -8.05498        7.93992
H          9.43109       -6.86949        8.17142
