62

C          0.85666        0.28897       -0.52951
C          2.37590        0.33923       -0.70811
C          3.05106       -1.00043       -0.37921
C          4.56518       -0.93287       -0.58729
S          5.27465       -2.53951       -0.05114
C          6.93510       -2.29166       -0.42816
N          7.55738       -1.27533       -0.98175
N          8.90168       -1.62021       -1.03763
C          9.00733       -2.81258       -0.54355
O          7.80590       -3.32220       -0.10447
C         10.23239       -3.64650       -0.34278
C         11.44926       -2.89671       -0.91203
C         12.77637       -3.65542       -1.04294
C         13.91265       -2.81764       -1.65080
C         14.18300       -2.95404       -3.20091
C         13.09576       -2.53660       -4.26777
C         12.56100       -1.05682       -4.39915
C         13.53337        0.15074       -4.71002
C         14.40553        0.10060       -6.02041
F         13.64172       -0.18370       -7.08945
F         14.97198        1.30430       -6.19371
F         15.37725       -0.82195       -5.91644
F         12.72444        1.23616       -4.81030
F         14.36305        0.32423       -3.65213
F         11.62495       -1.10157       -5.38141
F         11.92662       -0.74022       -3.23338
F         13.57347       -2.91006       -5.47542
F         11.97751       -3.30103       -4.00948
F         15.32376       -2.28623       -3.48455
F         14.39476       -4.28641       -3.42890
F         13.78370       -1.49044       -1.33892
F         15.08706       -3.24466       -1.08119
N         10.32762       -3.73810        1.24183
C         11.18256       -4.82561        1.85162
C         10.85624       -6.13858        1.15541
O         11.01142       -5.97777       -0.24614
C         10.02705       -5.13250       -0.80152
N         10.19716       -5.25861       -2.26016
O          9.76335       -6.58785       -2.53187
O          9.20440       -4.37732       -2.79856
H          0.40279        1.26640       -0.73891
H          0.58221        0.00829        0.49802
H          0.39714       -0.44358       -1.20906
H          2.80123        1.12643       -0.06431
H          2.61918        0.62525       -1.74455
H          2.62472       -1.79696       -1.01064
H          2.82836       -1.27380        0.66590
H          5.02987       -0.14188        0.01571
H          4.83318       -0.78002       -1.64049
H         11.59025       -1.97775       -0.32228
H         11.11934       -2.53625       -1.89137
H         12.65848       -4.57018       -1.63379
H         13.17123       -3.96046       -0.06531
H          9.35727       -3.84910        1.57472
H         10.63888       -2.80950        1.55945
H         10.96341       -4.85238        2.92772
H         12.23073       -4.54542        1.70477
H          9.83385       -6.48353        1.40230
H         11.56554       -6.91343        1.47089
H          9.01276       -5.47546       -0.50747
H         10.42501       -6.91135       -3.16927
H          9.61205       -4.06270       -3.62611
