69

C          4.91013       -2.23930        2.04171
C          5.31099       -1.15192        1.69101
C          5.80933        0.14097        1.23666
C          6.52321        0.04991       -0.13005
C          5.57410       -0.37699       -1.25522
C          6.27290       -0.73312       -2.57765
C          5.30904       -0.93935       -3.77057
C          6.10770       -1.04661       -5.09419
C          5.36539       -1.62531       -6.30595
C          4.13164       -0.81790       -6.75454
S          2.85604       -1.94638       -7.34091
O          3.28229       -2.58593       -8.56587
O          2.42223       -2.72430       -6.19973
O          1.65176       -0.91905       -7.68421
C          4.40215       -2.12825       -3.44155
N          5.20689       -3.24525       -2.93608
C          6.47907       -3.14917       -2.51508
N          7.15110       -4.29364       -2.22965
N          7.09941       -1.96389       -2.43927
C          8.56943       -1.91541       -2.24403
C          9.25606       -0.67571       -2.81801
C         10.78251       -0.87975       -2.95856
C         11.10186       -1.79825       -4.15496
C         12.56441       -2.27575       -4.25311
C         12.74692       -3.28961       -5.35008
C         13.18658       -3.06590       -6.60222
C         13.60983       -1.71681       -7.12075
C         13.28834       -4.19164       -7.59762
C         11.47739        0.48320       -3.07734
H          4.54485       -3.17822        2.40206
H          6.50603        0.54397        1.98833
H          4.97206        0.85677        1.18063
H          7.34822       -0.67102       -0.02874
H          6.97584        1.02590       -0.36317
H          4.85755        0.43574       -1.45826
H          4.97957       -1.23555       -0.90439
H          6.97336        0.06830       -2.84078
H          4.65697       -0.05474       -3.81607
H          6.99686       -1.67671       -4.93761
H          6.49154       -0.04141       -5.33154
H          5.06714       -2.66049       -6.08157
H          6.06518       -1.70184       -7.14809
H          4.35531       -0.11707       -7.56834
H          3.65529       -0.25914       -5.93736
H          1.54959       -0.89868       -8.65586
H          3.83161       -2.47858       -4.31204
H          3.66984       -1.84080       -2.67186
H          4.74023       -4.13749       -2.81335
H          6.68155       -5.18453       -2.33492
H          7.92613       -4.27307       -1.57927
H          8.97987       -2.80383       -2.74388
H          8.80140       -1.99473       -1.16780
H          9.06225        0.19545       -2.17399
H          8.84737       -0.44090       -3.81438
H         11.15146       -1.36918       -2.03717
H         10.83628       -1.27420       -5.08981
H         10.46027       -2.69658       -4.12832
H         12.85884       -2.72496       -3.28925
H         13.22955       -1.41377       -4.40352
H         12.45683       -4.31521       -5.09486
H         13.52007       -0.91511       -6.37843
H         13.00380       -1.43405       -7.99662
H         14.65502       -1.74314       -7.46752
H         12.96894       -5.14912       -7.16695
H         14.32286       -4.30613       -7.95921
H         12.67108       -3.99035       -8.48830
H         11.13906        1.01956       -3.97753
H         12.56709        0.37657       -3.14532
H         11.26338        1.11829       -2.20630
