38

C          1.08536        1.71832        2.97560
O          2.46312        1.89653        2.66324
C          2.86387        1.13017        1.54356
C          4.33442        1.36920        1.28181
O          5.10034        0.73946        2.32406
C          6.47447        1.03797        2.27585
C          6.99415        0.45543        3.59558
N          8.50049        0.45420        3.80566
C          8.76624        0.08837        5.23648
C          9.12096        1.84495        3.50709
O          9.44234        1.81168        2.16604
C         10.09386        0.54601        1.98087
C          9.20470       -0.45631        2.74412
C          9.96475       -1.66776        3.30416
C         10.49389       -2.44535        2.19011
C         10.92200       -3.07938        1.25477
H          0.86927        2.35254        3.84304
H          0.86286        0.66635        3.23077
H          0.43775        2.02338        2.13401
H          2.29648        1.42266        0.63691
H          2.68341        0.05009        1.71561
H          4.54027        2.45477        1.27233
H          4.61377        0.94399        0.30051
H          6.64926        2.12927        2.21906
H          6.96211        0.58364        1.39070
H          6.66649       -0.58998        3.67984
H          6.55825        1.01737        4.43233
H          8.33361        0.86936        5.87229
H          9.84403        0.02957        5.41378
H          8.28863       -0.86935        5.46568
H         10.00536        1.92754        4.16471
H          8.39284        2.63694        3.71708
H         11.11645        0.57228        2.39856
H         10.14426        0.33809        0.90791
H          8.39784       -0.81426        2.09589
H          9.29929       -2.30493        3.90857
H         10.79631       -1.34807        3.95352
H         11.30844       -3.65808        0.44006
