75

C          0.59880        0.83934        0.00739
C          2.12938        0.80393        0.02202
C          2.72279        0.69174        1.43120
C          4.25464        0.65910        1.45216
C          4.84983        0.54987        2.85994
C          6.38193        0.52615        2.87844
C          6.97635        0.41581        4.28651
C          8.50843        0.39522        4.30525
C          9.09942        0.27188        5.71379
C         10.63145        0.23748        5.72862
C         11.21729        0.07347        7.13606
C         12.74898       -0.00655        7.13148
C         13.29854       -0.26702        8.53697
N         14.77878       -0.41181        8.54174
N         15.46066        0.61923        9.01641
C         16.78202        0.48603        9.01106
C         17.50236       -0.63311        8.54104
C         16.74308       -1.70482        8.00913
C         15.35484       -1.52320        8.05395
C         17.30699       -3.00107        7.42623
C         18.10991       -3.81725        8.49748
C         17.66606       -3.78932        9.97497
C         16.26610       -4.36727       10.23265
C         18.71080       -4.53981       10.81513
C         16.15270       -3.89375        6.85198
O         16.61698       -5.12345        6.32665
C         18.23546       -2.66304        6.23353
C         18.99605       -0.57003        8.64906
H          0.20746        0.91920       -1.01621
H          0.21298        1.69762        0.57776
H          0.17337       -0.07140        0.45509
H          2.52387        1.71173       -0.46563
H          2.48451       -0.04373       -0.58867
H          2.33049       -0.21783        1.92001
H          2.36692        1.53897        2.04412
H          4.64479        1.56830        0.96130
H          4.60948       -0.18881        0.83974
H          4.46502       -0.36225        3.34931
H          4.49137        1.39467        3.47412
H          6.76679        1.43893        2.39043
H          6.74132       -0.31810        2.26382
H          6.59385       -0.49867        4.77317
H          6.61551        1.25816        4.90235
H          8.89283        1.31269        3.82619
H          8.86951       -0.44366        3.68440
H          8.71057       -0.64362        6.19312
H          8.74599        1.11257        6.33553
H         11.02598        1.16112        5.27144
H         10.98291       -0.59266        5.09092
H         10.80534       -0.84093        7.59717
H         10.89270        0.91204        7.77448
H         13.18349        0.92716        6.74048
H         13.06942       -0.81663        6.45434
H         12.88538       -1.19312        8.96227
H         13.08693        0.56203        9.22125
H         17.31177        1.34614        9.42513
H         14.65234       -2.27395        7.70366
H         19.16353       -3.50424        8.45272
H         18.10705       -4.85795        8.13574
H         17.66311       -2.74012       10.32596
H         16.17190       -5.38306        9.82055
H         15.45943       -3.75517        9.80307
H         16.07159       -4.42880       11.31189
H         18.75536       -5.60185       10.53132
H         18.46556       -4.49172       11.88449
H         19.71708       -4.11759       10.68225
H         15.59540       -3.32774        6.08217
H         15.44852       -4.17394        7.64783
H         16.90223       -5.00079        5.40854
H         19.10656       -2.06867        6.52520
H         17.69499       -2.11925        5.44526
H         18.62548       -3.59630        5.80648
H         19.29449        0.16181        9.40891
H         19.43366       -0.24280        7.69297
H         19.44218       -1.53741        8.89845
