42

C          2.72633        0.89651       -0.33756
C          3.60469        1.04416        0.90718
C          4.27928       -0.27911        1.30777
C          5.16711       -0.09331        2.52269
O          5.72433       -1.40639        2.98143
C          6.82142       -1.82086        2.40249
O          7.52615       -1.35231        1.55492
S          7.17819       -3.51310        3.20505
C          6.11783       -4.50200        2.07145
C          6.47720       -6.00137        2.17510
O          6.87775       -6.31863        3.50872
C          5.33272       -6.86795        1.66365
C          8.86968       -3.85588        2.59368
C          9.83203       -2.77900        3.09863
O          9.36663       -2.39239        4.38661
C          9.96609       -1.21848        4.92031
C          8.89625       -0.46312        5.70611
F          8.34931       -1.22109        6.67982
F          9.42878        0.64081        6.26768
F          7.87795       -0.06509        4.88416
H          2.25476        1.85216       -0.59913
H          1.92347        0.16231       -0.17804
H          3.31460        0.56764       -1.20642
H          2.99777        1.41341        1.74957
H          4.37815        1.80793        0.72555
H          4.87859       -0.65609        0.46335
H          3.50983       -1.03528        1.53225
H          4.61417        0.24577        3.40604
H          6.01941        0.57216        2.33651
H          6.21613       -4.11748        1.04676
H          5.10199       -4.29876        2.44398
H          7.37230       -6.18635        1.56025
H          6.10004       -6.57374        4.03327
H          4.42839       -6.73340        2.27735
H          5.62629       -7.92454        1.69537
H          5.07578       -6.61851        0.62487
H          8.86210       -3.91413        1.49834
H          9.08576       -4.84179        3.02742
H          9.84123       -1.91600        2.41415
H         10.84912       -3.20722        3.14397
H         10.33362       -0.54874        4.12612
H         10.79653       -1.46766        5.60045
