50

C          1.10071        0.14422       -0.23893
O          2.53542        0.22963       -0.27184
C          3.03687        0.07551       -1.56927
N          4.51310        0.19354       -1.47883
C          5.21553       -0.98686       -1.57582
C          6.58122       -1.05096       -1.48869
C          7.26050       -2.39014       -1.59885
C          7.62231       -2.98672       -0.21586
C          8.35343       -4.31252       -0.36864
Br         8.83288       -5.04770        1.38295
C          7.28879        0.16947       -1.24540
C          6.53870        1.38936       -1.10359
C          5.12069        1.38320       -1.25609
C          4.31339        2.65355       -1.20360
C          4.48666        3.55877       -2.45540
C          3.85268        3.02042       -3.74727
C          2.33056        3.22552       -3.79509
S          1.57382        2.08997       -4.97131
O          2.01924        2.39572       -6.31116
O          1.70116        0.75746       -4.41986
O          0.00947        2.48598       -4.83476
C          7.23970        2.59352       -0.80821
C          8.61196        2.59873       -0.68700
C          9.34803        1.40489       -0.85981
C          8.70026        0.21600       -1.12777
H          0.81246        0.29573        0.80575
H          0.75460       -0.84569       -0.57767
H          0.64013        0.92303       -0.86961
H          2.64774        0.81973       -2.27905
H          2.81815       -0.91932       -1.99239
H          4.60417       -1.87159       -1.73743
H          8.16624       -2.29905       -2.21780
H          6.59603       -3.08528       -2.13239
H          6.70390       -3.13047        0.37245
H          8.24937       -2.28374        0.35217
H          9.29804       -4.20644       -0.91443
H          7.73845       -5.07769       -0.85579
H          4.63608        3.21542       -0.31566
H          3.25802        2.42650       -1.02032
H          5.55702        3.72492       -2.63831
H          4.06284        4.54471       -2.21110
H          4.09681        1.95349       -3.87254
H          4.30045        3.52843       -4.61149
H          2.06435        4.24477       -4.10467
H          1.83331        3.01712       -2.83616
H         -0.25063        2.96456       -5.64620
H          6.69301        3.52285       -0.66398
H          9.13304        3.52724       -0.45439
H         10.43441        1.42305       -0.76984
H          9.28057       -0.69768       -1.24396
