79

C          1.97606       17.48758        1.91893
C          3.44524       17.06379        1.99190
C          3.73162       15.74714        1.26116
C          5.19756       15.30734        1.32844
C          5.48032       14.01434        0.55685
C          6.94289       13.56352        0.62178
C          7.22743       12.30562       -0.20532
C          8.68711       11.84786       -0.13729
C          8.99178       10.64569       -1.03855
C         10.45461       10.19487       -0.94103
C         10.80503        9.11772       -1.95069
O         12.19734        8.74822       -1.73431
C         12.82297        8.14461       -2.81661
N         14.26897        8.33512       -2.60972
C         15.24798        7.45423       -2.29498
C         15.12628        5.97767       -2.24497
C         15.25325        5.31921       -3.64231
C         15.19339        3.79433       -3.55195
N         16.38157        8.14929       -2.07319
N         16.11118        9.43639       -2.21706
N         14.85122        9.56278       -2.53605
C         14.17052       10.89102       -2.75981
O         14.91388       11.60174       -3.66604
C         15.10708       13.01106       -3.32272
C         16.11251       13.61258       -4.28506
C         16.18140       15.14021       -4.14162
C         17.23644       15.78839       -5.04552
C         17.23438       17.31922       -4.96664
C         18.31096       17.98268       -5.83321
C         18.27896       19.51179       -5.76910
H          1.80255       18.43577        2.44582
H          1.31926       16.73068        2.37311
H          1.65052       17.62257        0.87657
H          3.74999       16.96720        3.04785
H          4.08077       17.85916        1.56667
H          3.42983       15.84703        0.20330
H          3.09212       14.95078        1.68125
H          5.49334       15.17740        2.38442
H          5.83953       16.11436        0.93293
H          5.18953       14.15230       -0.49964
H          4.83310       13.20776        0.94378
H          7.22578       13.38418        1.67394
H          7.59368       14.38378        0.27017
H          6.95404       12.49560       -1.25829
H          6.57093       11.48564        0.13372
H          8.94732       11.59972        0.90634
H          9.34620       12.68712       -0.42199
H          8.75247       10.90921       -2.08366
H          8.32781        9.80542       -0.77517
H         10.66881        9.81865        0.07165
H         11.12067       11.05898       -1.10398
H         10.68962        9.48801       -2.98667
H         10.17407        8.22059       -1.83510
H         12.54469        8.59704       -3.78762
H         12.67272        7.05189       -2.88169
H         14.17332        5.69410       -1.77148
H         15.93331        5.62234       -1.58902
H         16.20297        5.63882       -4.09677
H         14.45034        5.69388       -4.29827
H         16.00997        3.39798       -2.93268
H         15.28563        3.34710       -4.54971
H         14.24347        3.45066       -3.11789
H         14.09996       11.36267       -1.76470
H         13.15789       10.64280       -3.11562
H         15.45658       13.07319       -2.27735
H         14.13292       13.52395       -3.40141
H         15.82006       13.34825       -5.31370
H         17.10173       13.16242       -4.10761
H         16.39139       15.40838       -3.09147
H         15.19129       15.56953       -4.37351
H         17.06581       15.47569       -6.09035
H         18.23542       15.40619       -4.77329
H         17.36930       17.63271       -3.91626
H         16.24108       17.69667       -5.26799
H         18.18882       17.65450       -6.87938
H         19.30377       17.62045       -5.51726
H         17.31533       19.90648       -6.12438
H         19.06766       19.95695       -6.39034
H         18.42347       19.87298       -4.74002
