54

C          1.26030       -5.61698        1.66001
C          2.36891       -6.07259        0.70820
C          3.42555       -6.93340        1.40779
C          4.55085       -7.43371        0.49441
N          5.36183       -6.34957       -0.08567
C          6.36469       -5.75812        0.58418
O          6.72649       -6.11270        1.71849
C          7.02208       -4.54705       -0.10094
N          8.49080       -4.59349       -0.12518
C          9.31016       -4.43234       -1.25688
C          8.81706       -4.35293       -2.66090
C          8.31892       -2.94996       -3.07988
C          9.42849       -1.89760       -3.15709
C          8.92211       -0.54230       -3.66501
N          8.36265       -0.67054       -5.01633
N         10.56468       -4.32367       -0.90330
N         10.56094       -4.42352        0.46547
C          9.32478       -4.57667        0.96518
N          8.94498       -4.70535        2.24426
C          9.90606       -4.97299        3.31935
C         10.59504       -3.71718        3.85495
C         11.35019       -4.02682        5.16296
F         12.21902       -5.05194        5.02426
F         12.05578       -2.93368        5.55070
F         10.47975       -4.33914        6.15008
O         11.50080       -3.25453        2.85779
H          0.51632       -4.99929        1.14058
H          1.66826       -5.02247        2.49046
H          0.73390       -6.47791        2.09602
H          2.84723       -5.18448        0.26018
H          1.92895       -6.64196       -0.12804
H          2.94634       -7.82462        1.84405
H          3.86893       -6.38127        2.25176
H          4.14519       -8.00933       -0.34920
H          5.23565       -8.08406        1.05391
H          5.10340       -5.99240       -0.99923
H          6.71017       -3.64881        0.45727
H          6.69066       -4.42467       -1.13766
H          8.02716       -5.10483       -2.81506
H          9.65789       -4.65116       -3.30280
H          7.52904       -2.60118       -2.39166
H          7.84495       -3.03536       -4.06767
H         10.22449       -2.26120       -3.83010
H          9.90558       -1.75471       -2.17439
H          9.74520        0.19305       -3.58595
H          8.11733       -0.18308       -3.00308
H          9.11178       -0.77063       -5.70352
H          7.84800        0.17067       -5.27541
H         11.39011       -4.20163        1.01839
H          8.01834       -5.18906        2.30966
H         10.67689       -5.68956        2.98940
H          9.34148       -5.44271        4.13362
H          9.84141       -2.94923        4.10235
H         11.96594       -2.46581        3.18554
