76

C          0.85978        1.53585       -0.54827
C          2.35354        1.84135       -0.68632
C          3.04716        1.00751       -1.77061
C          4.54361        1.30606       -1.90688
C          5.24643        0.45256       -2.96891
C          6.74469        0.76001       -3.08275
C          7.43177       -0.07583       -4.14747
O          8.81148        0.33714       -4.23085
C          9.57917       -0.35651       -5.18788
C         10.90701        0.41988       -5.37474
C         11.73122        0.26869       -4.07069
C         12.82390        1.31436       -3.82939
C         12.23683        2.72154       -3.92470
C         11.57920        2.94148       -5.27671
N         10.48909        1.91185       -5.51649
C          9.61262        2.23838       -6.72245
C          8.44283        3.06982       -6.16031
O          8.40322        3.44334       -5.00032
O          7.52909        3.29692       -7.09764
C          6.34479        4.08473       -6.69926
C          5.27553        3.19828       -6.09130
C         10.32175        2.92547       -7.89107
C         11.60548       -0.15955       -6.62400
C         13.03424        0.29245       -6.89938
O         13.31874        1.34810       -7.43886
O         13.91652       -0.62288       -6.47107
C         15.34246       -0.32499       -6.66888
C         15.84307       -0.88537       -7.99097
C         17.35774       -0.69012       -8.15542
C         17.88634       -1.27537       -9.46790
H          0.39296        2.15724        0.22786
H          0.69041        0.48356       -0.27597
H          0.32345        1.72318       -1.49056
H          2.85663        1.66679        0.28006
H          2.49317        2.91317       -0.90873
H          2.54746        1.18217       -2.74037
H          2.90751       -0.06548       -1.54962
H          5.03710        1.14868       -0.93191
H          4.68490        2.37501       -2.14640
H          4.75860        0.61187       -3.94716
H          5.10371       -0.61569       -2.73176
H          7.23919        0.57976       -2.11492
H          6.89778        1.82572       -3.31799
H          6.95563        0.06687       -5.13757
H          7.38706       -1.15296       -3.90439
H          9.02714       -0.45863       -6.14293
H          9.83066       -1.38055       -4.85302
H         12.15906       -0.74392       -4.08162
H         11.02151        0.30295       -3.23012
H         13.65293        1.20613       -4.54272
H         13.25412        1.14633       -2.83280
H         13.01610        3.48680       -3.80289
H         11.50300        2.88952       -3.11872
H         12.29897        2.86342       -6.09847
H         11.07864        3.91616       -5.31816
H          9.81273        2.03567       -4.72674
H          9.18953        1.28792       -7.07155
H          6.01837        4.53600       -7.64260
H          6.67752        4.86885       -6.00794
H          4.99328        2.38891       -6.77743
H          4.37897        3.80374       -5.89844
H          5.59990        2.76798       -5.13579
H         10.58988        3.96384       -7.66219
H          9.63158        2.94098       -8.74252
H         11.23138        2.38818       -8.18511
H         11.01801        0.05574       -7.52737
H         11.60754       -1.25012       -6.49130
H         15.82913       -0.80978       -5.81275
H         15.48092        0.76289       -6.60746
H         15.31226       -0.39065       -8.82005
H         15.59645       -1.95804       -8.04142
H         17.88085       -1.16003       -7.30592
H         17.59598        0.38506       -8.10561
H         17.70417       -2.35861       -9.52309
H         18.96826       -1.11528       -9.56561
H         17.40132       -0.81003      -10.33844
