68

C          8.54785       -2.83460       -0.12665
C          7.33151       -1.95257        0.16721
C          6.61121       -2.34699        1.46127
C          5.41045       -1.44059        1.75711
N          4.75087       -1.77507        3.03084
C          3.72350       -2.64756        3.07054
S          3.05334       -3.39425        1.73109
S          3.13385       -2.95225        4.75256
C          1.78454       -4.11149        4.44684
C          0.46305       -3.39947        4.12468
C         -0.52197       -4.42551        3.56834
N         -1.86495       -3.83010        3.37713
N         -2.13392       -2.57146        3.61012
N         -3.43664       -2.39437        3.47009
C         -3.97624       -3.57303        3.15154
N         -3.00174       -4.50973        3.05274
C         -2.94924       -5.95382        2.67824
C         -3.97171       -6.44663        1.64577
C         -4.01077       -5.83247        0.23614
C         -2.78135       -6.05170       -0.66766
S         -1.73651       -4.58734       -0.69673
O         -2.44031       -3.49547       -1.32909
O         -1.17479       -4.41910        0.63034
O         -0.52233       -5.06043       -1.64335
C         -5.48167       -3.74486        3.06266
C         -6.24249       -2.58424        3.78439
F         -7.56734       -2.81299        3.62142
F         -5.93890       -2.64008        5.11067
F         -5.87640       -3.77057        1.75554
F         -5.83127       -4.93210        3.64067
C          5.28509       -1.09638        4.22243
C          4.63404        0.26853        4.48274
C          5.19839        0.95241        5.73274
C          4.56915        2.32306        5.99346
H          9.04558       -2.53136       -1.05729
H          8.26000       -3.89080       -0.23145
H          9.29085       -2.77262        0.68209
H          6.62171       -2.00667       -0.67476
H          7.64840       -0.89770        0.23111
H          7.32108       -2.30633        2.30473
H          6.25948       -3.38855        1.39456
H          4.66012       -1.52126        0.95982
H          5.72765       -0.38873        1.82529
H          1.71119       -4.71377        5.36418
H          2.10614       -4.74896        3.60761
H          0.64084       -2.62888        3.36359
H          0.05938       -2.91075        5.02161
H         -0.65856       -5.27911        4.25028
H         -0.18265       -4.78196        2.58428
H         -3.07276       -6.51838        3.61412
H         -1.92889       -6.10108        2.30784
H         -4.98020       -6.40066        2.07272
H         -3.74644       -7.52262        1.56373
H         -4.25423       -4.76133        0.27089
H         -4.87157       -6.29265       -0.26776
H         -3.07835       -6.21619       -1.71133
H         -2.14345       -6.89067       -0.35576
H         -0.59427       -4.58451       -2.49454
H         -5.97642       -1.59614        3.37932
H          6.36876       -0.98168        4.06932
H          5.17223       -1.75609        5.09570
H          3.54579        0.13297        4.58873
H          4.78391        0.91723        3.60401
H          6.29101        1.06158        5.62929
H          5.04002        0.29936        6.60733
H          4.74417        3.00998        5.15258
H          4.98818        2.78917        6.89497
H          3.48133        2.24318        6.13539
