73

C          0.76324       -1.78365       -0.81710
C          2.29132       -1.83169       -0.73585
C          2.78819       -2.28240        0.62932
O          4.22450       -2.27326        0.62080
C          4.79946       -2.42065        1.91262
C          6.32327       -2.26330        1.85365
C          6.98205       -3.35484        1.00048
N          7.00975       -2.98745       -0.42429
C          6.69627       -1.77538       -0.88488
N          6.50739       -1.59438       -2.21231
N          6.62811       -0.73151       -0.05456
C          6.85629       -0.86208        1.41028
C          6.14603        0.32197        2.12787
C          4.83606        0.82543        1.50054
C          3.98043        1.67679        2.45918
C          2.63338        1.98665        1.84683
C          2.49100        3.00011        0.88679
C          1.26052        3.23234        0.26813
C          0.14843        2.45487        0.60373
C          0.27371        1.45150        1.56751
C          1.50734        1.22030        2.18116
C          8.38991       -0.73445        1.61986
C          8.87914       -0.81035        3.06285
O          8.33427       -1.42546        3.96231
O         10.03257       -0.13537        3.17807
C         10.72996       -0.21567        4.46654
C         12.17948        0.16326        4.22758
C         13.01683        0.08036        5.51008
C         14.49520        0.41262        5.27859
C         15.35101        0.30798        6.54564
C         16.82799        0.62908        6.30452
H          0.43521       -1.46696       -1.81517
H          0.35037       -1.06848       -0.09221
H          0.31532       -2.76744       -0.61797
H          2.70641       -0.83206       -0.94356
H          2.69320       -2.51291       -1.50338
H          2.42180       -3.29712        0.87599
H          2.42221       -1.59482        1.41573
H          4.56984       -3.42151        2.32774
H          4.36597       -1.68358        2.61457
H          6.68863       -2.40383        2.88178
H          6.42143       -4.29521        1.09262
H          8.01188       -3.54908        1.33400
H          7.23020       -3.70840       -1.10279
H          6.18538       -2.36203       -2.78846
H          6.36023       -0.66116       -2.57549
H          6.05168        0.05103       -0.35129
H          6.85469        1.16200        2.19722
H          5.96547        0.00310        3.16480
H          4.22454       -0.01368        1.14579
H          5.04743        1.44535        0.60935
H          4.51391        2.60497        2.71822
H          3.83796        1.12200        3.39994
H          3.34993        3.62484        0.62866
H          1.16647        4.03040       -0.46940
H         -0.81428        2.64079        0.12679
H         -0.59468        0.85493        1.85107
H          1.59482        0.44364        2.94527
H          8.72410        0.21593        1.18428
H          8.93110       -1.51939        1.06655
H         10.61977       -1.23740        4.85600
H         10.22559        0.47156        5.16247
H         12.22804        1.18167        3.80995
H         12.60123       -0.51132        3.46463
H         12.93516       -0.93417        5.93729
H         12.60146        0.76461        6.26975
H         14.58056        1.43138        4.86142
H         14.90312       -0.26455        4.50728
H         15.25772       -0.70959        6.96146
H         14.94577        0.98665        7.31504
H         17.26974       -0.05414        5.56370
H         17.41436        0.53883        7.22867
H         16.95854        1.65420        5.92732
