74

Br         7.60884        1.89981        1.99959
C          7.00316        0.72981        0.55072
C          6.39173       -0.54946        1.10283
C          5.91829       -1.47425       -0.04360
C          5.24778       -2.72209        0.47141
C          6.02900       -3.84978        0.68635
N          5.49162       -4.98585        1.16503
C          4.17751       -5.12971        1.46107
C          3.36096       -4.01933        1.28495
C          3.86349       -2.81582        0.77109
C          2.91765       -1.67423        0.47297
C          2.58567       -1.56521       -1.03933
C          1.42270       -2.45130       -1.48140
C          1.33083       -2.76323       -3.02161
C          2.55079       -3.44787       -3.77173
C          3.19318       -4.80559       -3.27370
C          2.35679       -6.14330       -3.17002
C          1.68974       -6.81242       -4.43883
C          2.54938       -7.26870       -5.68851
C          3.72668       -8.29174       -5.46717
F          3.32292       -9.34163       -4.73071
F          4.14398       -8.72827       -6.66230
F          4.76887       -7.70147       -4.84241
F          1.66413       -7.86188       -6.52536
F          3.05820       -6.17009       -6.29968
F          1.05768       -7.91341       -3.95629
F          0.75346       -5.95409       -4.91086
F          3.21117       -7.06352       -2.62407
F          1.35329       -5.94353       -2.28307
F          4.25014       -5.03797       -4.09192
F          3.69369       -4.58409       -2.01777
F          2.17135       -3.61207       -5.05732
F          3.59243       -2.55751       -3.75351
F          0.23434       -3.52862       -3.23435
F          1.15951       -1.57107       -3.65982
F          1.42290       -3.66012       -0.82315
F          0.23860       -1.84654       -1.15347
C          3.72097       -6.49489        1.88546
C          4.20959       -7.61294        0.93764
O          5.65156       -7.64898        1.08375
C          6.39832       -8.19452       -0.04641
C          7.18321       -7.08910       -0.70778
C          8.38220       -6.63698       -0.13014
C          9.07466       -5.55804       -0.68690
C          8.57641       -4.92088       -1.82951
C          7.38646       -5.36683       -2.41326
C          6.69593       -6.44602       -1.85527
C          3.58341       -8.95975        1.27451
H          7.88803        0.53652       -0.06682
H          6.28190        1.31959       -0.02718
H          5.54814       -0.30181        1.76513
H          7.12888       -1.08040        1.72342
H          6.78302       -1.76382       -0.65960
H          5.24310       -0.91745       -0.70773
H          7.09406       -3.88837        0.45999
H          6.04153       -5.86845        1.20473
H          2.29907       -4.11283        1.50682
H          3.37199       -0.72468        0.78560
H          1.99593       -1.78482        1.05887
H          3.47132       -1.80181       -1.63810
H          2.30064       -0.53475       -1.28863
H          2.62477       -6.50596        1.93141
H          4.08925       -6.71960        2.90088
H          3.96467       -7.32930       -0.10239
H          5.70756       -8.67141       -0.75656
H          7.06107       -8.96860        0.36464
H          8.78265       -7.14383        0.75072
H         10.01526       -5.22864       -0.24355
H          9.12755       -4.09163       -2.27501
H          7.00408       -4.88559       -3.31395
H          5.77866       -6.80307       -2.32443
H          3.81224       -9.24589        2.31006
H          3.96627       -9.74454        0.60884
H          2.49212       -8.92501        1.14947
