46

N          1.23981       -0.33879       -0.16072
C          2.68448       -0.11446       -0.13812
C          3.02977        0.96590        0.89276
C          4.53744        1.18209        1.05065
C          4.83844        2.27110        2.08806
N          6.27647        2.47209        2.35424
C          6.98945        3.43643        1.50307
C          8.30997        3.90238        2.12009
C          9.03822        4.88778        1.18890
C         10.16862        5.66751        1.87179
C         10.84342        6.63435        0.90788
F         11.84108        7.34048        1.58320
C          9.14532        2.70634        2.62174
N          8.27576        1.83133        3.39950
C          6.94795        1.68364        3.19867
N          6.31798        0.72288        3.90317
C          9.99426        1.86567        1.61596
C          9.34378        1.32230        0.31676
F         10.19115        0.45616       -0.27916
F          8.18268        0.64890        0.63242
F         11.06784        2.61933        1.22784
F         10.48249        0.79434        2.32818
H          1.00837       -1.17563       -0.69488
H          0.75316        0.43783       -0.61056
H          3.12244        0.16603       -1.11866
H          3.16454       -1.06120        0.15742
H          2.57858        0.67597        1.85603
H          2.54624        1.91448        0.60103
H          4.98751        1.46533        0.08590
H          5.02280        0.23697        1.34581
H          4.32194        2.07446        3.04142
H          4.45199        3.24228        1.74892
H          6.32825        4.30568        1.38576
H          7.13148        3.00318        0.49954
H          8.05065        4.45331        3.04056
H          8.28498        5.60194        0.81807
H          9.42185        4.37004        0.29565
H         10.93948        4.98999        2.26691
H          9.76803        6.23950        2.72372
H         10.12941        7.37015        0.50217
H         11.32088        6.10148        0.06904
H          9.91271        3.09102        3.31203
H          8.74052        1.10723        3.93842
H          6.79968        0.22321        4.63939
H          5.32162        0.57679        3.82062
H          9.10209        2.13236       -0.39058
