75

O          1.32109        0.17576       -0.15152
C          2.73119        0.16360        0.07440
C          3.00608        0.92545        1.37027
C          2.34006        0.26971        2.62609
C          0.85184        0.30995        2.66172
N          0.14961        1.42717        2.65338
C         -1.31910        1.34934        2.88146
C         -1.65143       -0.14071        2.59762
S         -0.10312       -1.10204        2.79396
C         -2.05730        2.30649        1.92271
C         -1.72661        2.18599        0.43154
C         -2.53388        3.18244       -0.40917
C         -2.25331        3.08295       -1.91137
C         -3.07723        4.06816       -2.74735
C         -2.80082        3.97363       -4.25092
C         -3.62551        4.95544       -5.08984
C         -3.33758        4.86170       -6.59140
C         -4.16166        5.83526       -7.44010
C         -3.85468        5.74114       -8.93836
C         -4.68586        6.70193       -9.79301
C         -4.34687        6.59924      -11.28603
N         -5.13385        7.49834      -12.12006
C         -6.34897        7.19817      -12.69427
C         -6.82943        8.33895      -13.32029
C         -5.87502        9.36704      -13.11010
C         -4.84125        8.82185      -12.36311
C         -1.54932        1.72230        4.36952
C         -3.02119        1.81589        4.79030
C         -3.17048        1.96871        6.29650
F         -2.65691        0.89719        6.96150
F         -2.52373        3.07306        6.75553
F         -4.47191        2.07996        6.64466
O          4.39135        1.07987        1.59689
H          1.13434       -0.28227       -0.98510
H          3.27944        0.66738       -0.73865
H          3.11597       -0.87194        0.16333
H          2.61795        1.95134        1.25649
H          2.72687        0.81424        3.50257
H          2.67680       -0.77339        2.71374
H          0.60853        2.33587        2.62017
H         -2.00520       -0.30035        1.57224
H         -2.39492       -0.53638        3.29796
H         -1.86097        3.33908        2.26107
H         -3.13777        2.15172        2.06887
H         -1.93536        1.16431        0.07140
H         -0.64852        2.34123        0.26168
H         -2.32105        4.20887       -0.06339
H         -3.61081        3.02128       -0.22779
H         -2.45912        2.05327       -2.25361
H         -1.17823        3.25535       -2.09556
H         -2.87549        5.09720       -2.40222
H         -4.15129        3.89303       -2.56140
H         -3.00104        2.94345       -4.59471
H         -1.72640        4.15001       -4.43576
H         -3.43060        5.98546       -4.74342
H         -4.70007        4.77564       -4.91096
H         -3.52698        3.82945       -6.93496
H         -2.26289        5.04510       -6.76751
H         -3.98020        6.86778       -7.09436
H         -5.23657        5.64627       -7.27455
H         -4.02453        4.70473       -9.27976
H         -2.78049        5.93957       -9.10118
H         -4.52398        7.74037       -9.46112
H         -5.76030        6.49744       -9.65729
H         -4.51370        5.57324      -11.64715
H         -3.28244        6.82527      -11.45277
H         -6.76503        6.19855      -12.61915
H         -7.75746        8.41233      -13.87775
H         -5.92377       10.38851      -13.47296
H         -3.92191        9.26371      -11.99163
H         -1.06217        2.69104        4.55888
H         -1.03216        0.98135        4.99882
H         -3.59141        0.91684        4.51352
H         -3.52305        2.67860        4.33281
H          4.83642        0.21801        1.52697
