51

N          5.94550        0.94436       -3.89863
C          5.46879       -0.20068       -3.12363
C          5.63493        0.04874       -1.61725
N          4.91109        1.23362       -1.14707
C          5.38105        2.49435       -1.12785
N          4.52316        3.52567       -0.97470
C          3.08938        3.40371       -0.75256
C          2.46956        4.79188       -0.93949
C          0.97116        4.78376       -0.57887
F          0.74119        4.34596        0.67653
F          0.47245        6.04043       -0.67967
F          0.28726        3.98709       -1.43738
O          3.20026        5.67789       -0.10725
N          6.69624        2.73642       -1.20827
C          7.27193        4.06906       -1.40914
C          8.80537        3.97310       -1.46867
P          9.40350        2.78497       -2.71235
O          8.75587        1.44186       -2.53463
O          9.07146        3.55472       -4.06083
C          9.24612        2.91200       -5.37063
C          8.12086        3.36725       -6.27382
O         10.99164        2.76768       -2.66378
C         11.75097        1.80045       -1.85621
C         13.09042        1.57914       -2.52285
H          5.66170        0.85923       -4.87358
H          6.96746        0.98549       -3.87413
H          5.97642       -1.15876       -3.34745
H          4.40063       -0.35060       -3.34637
H          6.69749        0.14375       -1.35469
H          5.25448       -0.81132       -1.04995
H          3.90840        1.12855       -1.04401
H          4.90785        4.42659       -0.69914
H          2.86618        3.03493        0.26320
H          2.64358        2.72280       -1.49266
H          2.53171        5.08985       -2.00247
H          2.86540        6.58254       -0.22575
H          7.30124        1.98209       -1.57696
H          7.00034        4.72920       -0.56945
H          6.88655        4.52114       -2.33920
H          9.20973        3.64423       -0.49914
H          9.23024        4.96129       -1.68795
H          9.24550        1.81985       -5.23679
H         10.23122        3.21964       -5.74688
H          7.14474        3.06189       -5.87341
H          8.24337        2.92000       -7.26985
H          8.12603        4.45893       -6.38851
H         11.16533        0.87370       -1.78437
H         11.86588        2.23353       -0.85109
H         12.96686        1.14046       -3.52148
H         13.68921        0.88596       -1.91606
H         13.64727        2.52006       -2.61716
