82

C          0.43934        0.91532        0.78614
C          1.94964        0.80662        0.55976
C          2.73928        0.54826        1.84798
C          4.25396        0.44744        1.63816
C          5.03302        0.20428        2.93513
C          6.55205        0.11652        2.74763
C          7.30308       -0.10699        4.06450
C          8.82845       -0.17617        3.92805
C          9.52571       -0.37465        5.27820
C         11.05759       -0.42505        5.21130
C         11.67519       -0.59666        6.60512
C         13.19421       -0.62185        6.61995
O         13.59765       -0.75315        8.00269
C         14.98736       -0.70029        8.23370
C         15.11867       -0.65726        9.72561
N         14.05624       -0.63749       10.54316
C         14.44877       -0.58617       11.87234
C         15.82197       -0.57852       11.84488
N         16.21335       -0.62914       10.50948
C         17.59286       -0.53221       10.02399
C         18.00753        0.94395        9.86478
O         19.17705        1.05394        9.04400
C         18.94367        0.99620        7.68666
O         17.82807        0.83581        7.22786
C         20.22281        1.10084        6.90543
C         20.81648       -0.29921        6.61930
C         22.09955       -0.21792        5.79050
C         13.47546       -0.54859       13.00546
C         13.71995       -1.65648       14.05591
O         15.03940       -1.65800       14.57013
C         15.31316       -0.63895       15.53428
C         16.79452       -0.65563       15.83451
O         17.50376       -0.18766       14.67254
H         -0.09792        1.10028       -0.15422
H          0.19676        1.73889        1.47437
H          0.03309       -0.00900        1.22371
H          2.31915        1.73294        0.08798
H          2.15726       -0.00194       -0.16154
H          2.37282       -0.38149        2.31855
H          2.52523        1.35466        2.57200
H          4.61852        1.37466        1.16183
H          4.47112       -0.36461        0.92206
H          4.67106       -0.72587        3.40793
H          4.80388        1.01316        3.65147
H          6.91612        1.04328        2.27034
H          6.78983       -0.70001        2.04360
H          6.93952       -1.03776        4.53482
H          7.04263        0.70406        4.76777
H          9.19817        0.75044        3.45515
H          9.10314       -0.99773        3.24388
H          9.15516       -1.30524        5.74296
H          9.22519        0.44107        5.95930
H         11.43715        0.50056        4.74585
H         11.37442       -1.25293        4.55460
H         11.30534       -1.53031        7.05987
H         11.33880        0.22740        7.25599
H         13.62021        0.30986        6.20548
H         13.59502       -1.47263        6.03965
H         15.46794        0.18679        7.77724
H         15.51526       -1.58978        7.83075
H         13.11089       -0.66458       10.16286
H         16.53892       -0.54886       12.66300
H         17.65266       -1.04164        9.05485
H         18.24118       -1.06147       10.73227
H         18.27814        1.38653       10.83071
H         17.18208        1.51435        9.41532
H         20.94812        1.70898        7.46278
H         19.98929        1.60610        5.95815
H         20.06315       -0.90337        6.09026
H         21.01953       -0.80638        7.57568
H         21.91619        0.25479        4.81511
H         22.50760       -1.21989        5.60368
H         22.87424        0.36717        6.30628
H         12.45085       -0.65807       12.61918
H         13.51512        0.44071       13.48679
H         13.58299       -2.64389       13.59243
H         12.97280       -1.55130       14.86342
H         14.74461       -0.82721       16.46371
H         15.03255        0.36151       15.15536
H         17.10466       -1.68186       16.09411
H         16.98428        0.00150       16.69983
H         18.44358       -0.12815       14.90060
