76

C          0.09448        0.09880       12.14780
C          1.60501       -0.11062       12.28011
C          2.23981       -0.75279       11.04155
C          3.75316       -0.95851       11.15859
C          4.38153       -1.60193        9.91845
C          5.89997       -1.77837       10.01517
C          6.51989       -2.42379        8.77200
C          8.04413       -2.55798        8.84056
C          8.65919       -3.19982        7.59328
C         10.18834       -3.28564        7.64068
C         10.79710       -3.95641        6.40282
C         12.32953       -3.89334        6.32485
C         13.04329       -4.63581        7.46311
C         14.56460       -4.54638        7.31221
N         15.29359       -5.37507        8.28204
C         15.06716       -5.30683        9.74162
C         15.46254       -6.72143       10.23218
N         16.31223       -7.15431        9.10966
C         16.07398       -6.42743        8.00661
N         16.52698       -6.76732        6.76871
C         17.34230       -5.86144        5.95744
O         18.66621       -5.97025        6.41720
C         19.63551       -5.38030        5.52261
C         21.02746       -5.69748        6.04444
C         22.12626       -5.12531        5.14403
C         14.27717       -7.68421       10.45355
C         14.74359       -9.07184       10.79440
C         14.65909      -10.12238        9.97237
H         -0.32991        0.56100       13.04967
H         -0.42880       -0.85558       11.98629
H         -0.14456        0.75297       11.29596
H          1.81478       -0.73939       13.16219
H          2.09574        0.85771       12.47749
H          2.02509       -0.12636       10.15749
H          1.75259       -1.72448       10.84545
H          3.97036       -1.58235       12.04379
H          4.23918        0.01463       11.35007
H          4.14459       -0.98866        9.03116
H          3.91017       -2.58427        9.73840
H          6.14272       -2.38730       10.90411
H          6.37003       -0.79386       10.18739
H          6.24938       -1.82988        7.88129
H          6.07142       -3.42072        8.61541
H          8.32037       -3.15068        9.73098
H          8.48995       -1.55918        8.99352
H          8.35813       -2.62562        6.69999
H          8.23915       -4.21161        7.45614
H         10.48359       -3.82983        8.55502
H         10.60532       -2.26769        7.74463
H         10.39132       -3.47437        5.49916
H         10.46967       -5.00939        6.35316
H         12.64870       -2.83673        6.32510
H         12.65942       -4.31404        5.36022
H         12.74279       -5.69747        7.46322
H         12.73044       -4.21290        8.42952
H         14.90741       -3.50335        7.40611
H         14.84785       -4.89856        6.31274
H         14.01704       -5.07807        9.95514
H         15.69778       -4.51898       10.18142
H         16.07522       -6.65872       11.14165
H         16.83896       -8.02082        9.11122
H         16.89250       -7.71804        6.72832
H         16.95372       -4.83342        6.05357
H         17.25572       -6.17667        4.90211
H         19.47162       -4.28773        5.46766
H         19.49079       -5.79577        4.50687
H         21.13132       -6.79065        6.12341
H         21.12314       -5.29580        7.06494
H         22.06731       -5.53123        4.12380
H         23.11857       -5.37370        5.54098
H         22.06398       -4.02982        5.07382
H         13.65105       -7.70039        9.54630
H         13.66257       -7.27324       11.27151
H         15.19745       -9.20003       11.78314
H         14.19169      -10.04443        8.98735
H         15.02099      -11.10759       10.26607
