31

C          4.06022        0.41371        3.01551
C          3.84629        0.23528        1.51174
C          4.68926        1.20102        0.67041
C          4.50578        0.98781       -0.83606
C          5.22825        1.99120       -1.73411
S          7.04376        2.01681       -1.44651
C          7.49329        0.25724       -2.34049
O          7.10141        0.12713       -3.44776
C          8.27542       -0.62283       -1.44116
C          7.61747        3.11349       -2.82083
C          9.11162        3.17972       -2.84115
C          9.84323        2.69601       -3.85061
H          3.43902       -0.28610        3.58848
H          3.79861        1.43135        3.33880
H          5.10841        0.23319        3.29587
H          2.78200        0.38218        1.26581
H          4.08448       -0.80213        1.22244
H          5.75312        1.08224        0.94605
H          4.42540        2.24082        0.92926
H          3.43756        1.07670       -1.09456
H          4.78927       -0.03998       -1.11791
H          4.91783        3.02640       -1.52568
H          5.09045        1.78070       -2.80455
H          7.71453       -0.78609       -0.50794
H          9.20911       -0.10979       -1.16153
H          8.49069       -1.57460       -1.93982
H          7.15192        4.08344       -2.58808
H          7.19098        2.70866       -3.74936
H          9.59270        3.68059       -1.99716
H          9.38619        2.21224       -4.71656
H         10.92839        2.79695       -3.85615
