87

C          5.87674       -4.87819        7.39723
C          6.38686       -4.09784        6.18315
C          7.00607       -4.99379        5.10480
C          7.49238       -4.23014        3.86878
C          8.11013       -5.13675        2.79972
C          8.55541       -4.39542        1.53477
C          9.16596       -5.32410        0.48067
C          9.58952       -4.61578       -0.81044
C         10.22620       -5.57063       -1.82493
C         10.67256       -4.89743       -3.12788
C         11.38489       -5.87517       -4.06911
C         11.92133       -5.20457       -5.33827
N         12.74315       -6.09939       -6.17819
C         12.15648       -6.89408       -7.09246
N         12.78225       -7.75015       -7.92085
N         11.90386       -8.35752       -8.78764
C         10.73100       -7.89136       -8.45560
N         10.83410       -6.98771       -7.40833
C          9.40873       -8.23813       -9.05765
O          8.58049       -7.10624       -8.87350
C          7.25792       -7.27599       -9.42616
C          6.50562       -5.96485       -9.28701
C          5.07654       -6.03897       -9.84047
C          4.35320       -4.68822       -9.79547
C          2.91527       -4.74155      -10.32193
C          2.22362       -3.37416      -10.33425
C          0.77483       -3.41744      -10.83249
C          0.10994       -2.03891      -10.87388
C         14.12189       -6.36661       -5.74247
C         15.25947       -5.99974       -6.76812
N         15.01277       -4.83608       -7.59199
N         16.42767       -5.68592       -5.96765
N         15.40143       -7.14628       -7.72885
H          5.44246       -4.20994        8.15347
H          6.68905       -5.44174        7.88033
H          5.10024       -5.60249        7.10905
H          7.13319       -3.35350        6.50898
H          5.55761       -3.51952        5.74164
H          6.26565       -5.75246        4.79436
H          7.84891       -5.55871        5.54130
H          8.23026       -3.46762        4.17444
H          6.64658       -3.67210        3.42973
H          7.38139       -5.91873        2.52227
H          8.97436       -5.67204        3.23128
H          9.28696       -3.61337        1.80355
H          7.69103       -3.86388        1.09934
H          8.44125       -6.12048        0.23551
H         10.04137       -5.83871        0.91493
H         10.30302       -3.80810       -0.57058
H          8.71318       -4.12181       -1.26507
H          9.51624       -6.38312       -2.05863
H         11.09958       -6.05933       -1.35836
H         11.35169       -4.05954       -2.89296
H          9.80100       -4.45006       -3.63600
H         10.70665       -6.70174       -4.34127
H         12.22758       -6.34037       -3.53127
H         12.56035       -4.34731       -5.08111
H         11.10847       -4.79285       -5.95676
H         13.85020       -7.72932       -8.04136
H         10.04927       -6.46737       -7.02692
H          8.98897       -9.13397       -8.55494
H          9.55684       -8.49249      -10.12282
H          6.74266       -8.09716       -8.89271
H          7.34791       -7.56708      -10.48913
H          7.06982       -5.17891       -9.81482
H          6.47900       -5.67693       -8.22295
H          4.49712       -6.78692       -9.27247
H          5.10291       -6.40085      -10.88283
H          4.92892       -3.95113      -10.38222
H          4.34770       -4.31041       -8.75788
H          2.32683       -5.44583       -9.70801
H          2.91507       -5.15916      -11.34407
H          2.80469       -2.67977      -10.96697
H          2.24513       -2.94331       -9.31741
H          0.18890       -4.09140      -10.18457
H          0.74973       -3.86946      -11.83853
H          0.09805       -1.56988       -9.87852
H         -0.92989       -2.10364      -11.22204
H          0.64506       -1.35815      -11.55291
H         14.21745       -7.42216       -5.43274
H         14.28716       -5.74313       -4.85764
H         15.04396       -3.98758       -7.02856
H         14.12231       -4.87880       -8.08622
H         16.68124       -6.43409       -5.32229
H         17.23036       -5.48464       -6.56566
H         15.95256       -6.81604       -8.52600
H         15.93092       -7.90329       -7.28979
