124

C          1.58828      -17.83215        9.04622
C          3.04880      -17.84681        8.58789
C          3.38245      -16.73119        7.59123
C          4.85020      -16.71136        7.15352
C          5.17170      -15.61373        6.13403
C          6.65819      -15.52579        5.77498
C          6.98132      -14.44556        4.73785
C          8.48190      -14.28105        4.47983
C          8.81993      -13.21895        3.42849
C         10.32589      -12.99417        3.26624
C         10.69263      -11.94194        2.21477
C         12.19933      -11.67701        2.14877
C         12.60871      -10.64467        1.09330
C         14.11406      -10.36250        1.12887
C         14.55610       -9.38489        0.03862
N         16.01979       -9.17255        0.04776
C         16.64605       -8.18867        0.79122
N         17.94369       -8.27963        0.75146
N         18.18311       -9.37828       -0.03501
C         17.02691       -9.93439       -0.47778
N         16.97508      -11.02788       -1.25920
C         15.80550      -11.76689       -1.75557
C         15.26418      -11.25843       -3.09571
C         14.01492      -12.05205       -3.48762
S         13.21386      -11.46534       -4.99902
C         12.14148      -10.16080       -4.38309
S         12.11340       -9.69063       -2.77229
N         11.35947       -9.62015       -5.34209
C         11.38216      -10.08256       -6.74000
C         12.37090       -9.34299       -7.65376
C         12.43523       -9.98416       -9.04518
C         13.39682       -9.26245       -9.99236
C         10.42317       -8.53066       -5.00851
C         11.04169       -7.12811       -5.05802
C         10.05259       -6.06166       -4.57567
C         10.63372       -4.64649       -4.61244
C         19.55432       -9.81704       -0.30814
C         20.18464       -9.14959       -1.53913
C         20.47957       -7.64960       -1.37634
C         21.50398       -7.32666       -0.28184
C         21.82015       -5.83227       -0.15805
C         22.84546       -5.52653        0.93902
C         23.13349       -4.03295        1.12040
C         24.15315       -3.73888        2.22574
C         24.42927       -2.24491        2.42929
C         25.44134       -1.96230        3.54237
H          1.37769      -18.64742        9.75212
H          0.90080      -17.94463        8.19421
H          1.33735      -16.88542        9.54823
H          3.28354      -18.82314        8.13062
H          3.71167      -17.75888        9.46572
H          3.12483      -15.75505        8.03941
H          2.73530      -16.83266        6.70187
H          5.12062      -17.69437        6.72900
H          5.49216      -16.58149        8.04281
H          4.83891      -14.63859        6.53208
H          4.57973      -15.78144        5.21695
H          7.00569      -16.50548        5.40186
H          7.23955      -15.33160        6.69385
H          6.56558      -13.47990        5.07594
H          6.46582      -14.67982        3.79000
H          8.91045      -15.25055        4.16961
H          8.98298      -14.02210        5.42945
H          8.33838      -12.26437        3.70458
H          8.38155      -13.50858        2.45742
H         10.81411      -13.95093        3.00941
H         10.75021      -12.69352        4.24062
H         10.16602      -10.99805        2.43913
H         10.32858      -12.26400        1.22368
H         12.72840      -12.62601        1.94908
H         12.54931      -11.34150        3.14089
H         12.05309       -9.70515        1.25350
H         12.32104      -10.99797        0.08879
H         14.66816      -11.31099        1.02043
H         14.40189       -9.95995        2.11424
H         14.11102       -8.39275        0.19460
H         14.23844       -9.70037       -0.96499
H         16.09486       -7.43092        1.33833
H         17.87052      -11.31003       -1.64332
H         15.02160      -11.75067       -0.98917
H         16.12496      -12.81570       -1.83940
H         16.03643      -11.34662       -3.87490
H         14.99882      -10.19406       -3.01235
H         13.25774      -12.00827       -2.68964
H         14.25182      -13.10568       -3.69920
H         10.35793       -9.97554       -7.12571
H         11.60069      -11.16184       -6.74307
H         13.37090       -9.35185       -7.19144
H         12.07470       -8.28623       -7.74277
H         11.42510      -10.00121       -9.48772
H         12.73901      -11.03964       -8.94170
H         13.09035       -8.21890      -10.15570
H         13.43327       -9.75453      -10.97337
H         14.42035       -9.24873       -9.58914
H         10.03649       -8.72907       -3.99955
H          9.58672       -8.60751       -5.71808
H         11.37152       -6.89658       -6.08298
H         11.94049       -7.11486       -4.42160
H          9.73428       -6.30657       -3.54846
H          9.13934       -6.10020       -5.19347
H         11.53204       -4.56664       -3.98250
H          9.90694       -3.90748       -4.24962
H         10.91926       -4.35631       -5.63425
H         19.53422      -10.91331       -0.40544
H         20.12085       -9.59372        0.60423
H         19.53553       -9.31536       -2.41542
H         21.12192       -9.69167       -1.74475
H         19.54379       -7.10052       -1.18008
H         20.84966       -7.27461       -2.34355
H         22.43675       -7.88372       -0.48002
H         21.13795       -7.68023        0.69735
H         20.88656       -5.28002        0.04827
H         22.19051       -5.45213       -1.12597
H         23.78791       -6.05606        0.71482
H         22.48650       -5.94406        1.89644
H         22.18997       -3.50479        1.34489
H         23.49564       -3.61054        0.16666
H         25.10110       -4.25701        1.99649
H         23.79566       -4.17431        3.17602
H         23.48034       -1.72839        2.65336
H         24.79220       -1.81103        1.48209
H         25.09144       -2.35418        4.50923
H         25.61511       -0.88455        3.66552
H         26.41288       -2.43255        3.32900
