52

O          4.82064        2.99240        1.19992
C          4.46750        1.60940        1.08414
C          2.98824        1.58838        0.69716
C          2.09837        2.07310        1.86687
N          0.67965        2.07407        1.48301
C         -0.14214        1.00807        1.57678
N         -1.31418        1.37308        1.07191
N         -1.27784        2.65554        0.62827
C         -0.05399        3.08465        0.87876
C          0.41316        4.47133        0.59298
C         -0.66590        5.50097        0.95790
O         -0.94574        5.37982        2.33974
Si        -2.45277        5.73473        3.02240
C         -3.74281        4.53689        2.35140
C         -2.18972        5.47097        4.85562
C         -2.93938        7.49909        2.61201
C         -2.54488        0.56384        0.90323
C         -2.42635       -0.25232       -0.38880
O         -1.34449       -1.16756       -0.23343
C         -2.84006       -0.27780        2.15297
C         -3.09499        0.54090        3.42026
O          2.75469        2.37638       -0.45926
H          5.78547        3.08196        1.19070
H          4.63578        1.06624        2.03117
H          5.04410        1.11316        0.28685
H          2.70275        0.55351        0.44381
H          2.37190        3.09199        2.16553
H          2.20682        1.42139        2.74424
H          0.10925        0.03619        1.98387
H          0.68044        4.54872       -0.47234
H          1.32416        4.68179        1.16883
H         -1.56173        5.33143        0.33490
H         -0.28115        6.50775        0.72220
H         -3.47985        3.50120        2.60530
H         -3.85207        4.60466        1.26039
H         -4.72423        4.75547        2.79658
H         -1.87796        4.43892        5.06887
H         -3.11938        5.66203        5.41012
H         -1.41896        6.14845        5.24714
H         -3.03654        7.65383        1.52788
H         -2.19838        8.21505        2.99382
H         -3.90989        7.74616        3.06591
H         -3.33177        1.31838        0.76006
H         -2.26028        0.43138       -1.23898
H         -3.38701       -0.77347       -0.54390
H         -1.24519       -1.67894       -1.05081
H         -2.03587       -1.01331        2.30693
H         -3.73160       -0.87580        1.91205
H         -2.23054        1.15883        3.70430
H         -3.31066       -0.12264        4.26667
H         -3.95589        1.21236        3.29737
H          3.38821        3.11836       -0.41045
