52

C          0.86564       -0.86343        0.22205
C          2.27609       -0.82828        0.81550
C          3.04083        0.44853        0.43559
C          4.45814        0.44930        1.00968
S          5.25663        2.03784        0.54575
C          6.86436        1.74566        1.09554
N          7.40132        0.71261        1.68795
N          8.75414        1.01211        1.86553
C          8.95116        2.19142        1.37885
O          7.79229        2.75868        0.86319
C         10.21374        2.98039        1.30369
C         10.05971        4.36016        1.95449
N          9.34338        5.14557        0.86964
C          9.91520        4.66731       -0.46877
C         10.66337        3.35055       -0.15129
C         10.43953        2.28079       -1.22638
C         11.20285        0.97553       -0.97298
C         11.00263       -0.00677       -2.13241
S         11.59405       -1.67610       -1.76230
C         10.21483       -2.35769       -0.88643
S          8.74441       -1.64041       -0.69561
N         10.51583       -3.62529       -0.37988
C         11.76416       -4.26071       -0.30458
C         11.51934       -5.48709        0.24202
N         10.16306       -5.65275        0.50448
C          9.58964       -4.54184        0.13395
H          0.33818       -1.78080        0.51341
H          0.89104       -0.82875       -0.87690
H          0.26412       -0.01031        0.56757
H          2.84559       -1.70860        0.47611
H          2.21925       -0.90311        1.91352
H          2.48622        1.32828        0.80284
H          3.08590        0.53989       -0.66204
H          5.07387       -0.36265        0.60163
H          4.46138        0.37961        2.10521
H         10.98277        2.39369        1.82056
H         11.03037        4.84232        2.12566
H          9.46407        4.38209        2.87393
H          9.42453        6.16072        0.99612
H          8.34268        4.89578        0.90303
H         10.56835        5.45432       -0.86040
H          9.06976        4.52386       -1.15151
H         11.74047        3.57333       -0.09224
H         10.74111        2.70557       -2.19844
H          9.36203        2.05956       -1.30835
H         10.83765        0.50551       -0.04822
H         12.27727        1.17700       -0.83638
H         11.56114        0.29473       -3.03041
H          9.93670       -0.10446       -2.38988
H         12.68130       -3.77171       -0.60869
H         12.23700       -6.26764        0.47436
H          8.53331       -4.29922        0.17678
