62

C          1.26854       -0.38360       -2.55324
C          2.72836        0.08298       -2.58675
C          3.17000        0.58574       -1.22070
O          4.60164        0.94801       -1.21489
C          4.90970        2.18896       -1.58300
O          4.15106        3.06228       -1.95043
C          6.42750        2.40817       -1.42313
N          6.88954        3.49654       -2.27910
C          6.44314        4.75847       -2.18747
N          6.99493        5.44974       -3.19297
C          7.80210        4.63029       -3.96576
C          7.73324        3.37793       -3.38992
C          8.45998        2.13340       -3.76268
C          9.77984        1.97507       -2.98868
O         10.49226        0.92591       -3.59902
C         11.83118        0.81510       -3.11178
C         12.55179       -0.21718       -3.96527
O         13.87811       -0.29064       -3.48082
C         14.67211       -1.24888       -4.17538
C         16.05425       -1.24628       -3.53849
O         16.84542       -2.18312       -4.24624
C         18.16122       -2.29057       -3.72295
C          8.58187        5.12595       -5.14841
C         10.08161        4.91479       -4.99742
C         10.75509        4.00588       -5.82162
C         12.12122        3.76788       -5.64836
C         12.82799        4.44537       -4.65262
C         12.16566        5.36816       -3.83571
C         10.80002        5.59963       -4.00580
H          0.95274       -0.72885       -3.54524
H          0.59214        0.42979       -2.25495
H          1.12551       -1.21606       -1.85015
H          2.84706        0.88930       -3.32615
H          3.38571       -0.74447       -2.89439
H          3.10436       -0.19695       -0.45531
H          2.59539        1.46581       -0.90215
H          6.98166        1.49742       -1.66630
H          6.63433        2.65213       -0.37115
H          5.74002        5.13737       -1.45723
H          6.82514        6.43652       -3.36731
H          8.70461        2.17965       -4.83186
H          7.83019        1.24071       -3.63341
H          9.58331        1.75918       -1.91679
H         10.35208        2.91979       -3.03448
H         11.83751        0.50342       -2.05089
H         12.34579        1.79015       -3.18795
H         12.52806        0.09466       -5.02869
H         12.04176       -1.19743       -3.89223
H         14.74913       -0.98979       -5.24832
H         14.22244       -2.25671       -4.10075
H         15.97552       -1.51883       -2.46764
H         16.49205       -0.22961       -3.59382
H         18.68332       -3.04504       -4.32296
H         18.15100       -2.61356       -2.66564
H         18.70578       -1.33072       -3.79385
H          8.35878        6.19431       -5.29735
H          8.22532        4.61278       -6.05421
H         10.20893        3.47602       -6.60496
H         12.63153        3.05260       -6.29381
H         13.89376        4.26028       -4.51772
H         12.71668        5.91174       -3.06751
H         10.29334        6.32207       -3.36133
