76

C          3.12853       -0.49134       -1.19063
C          3.70009        0.88559       -0.84508
C          4.18878        0.97569        0.60885
C          4.72478        2.36125        0.92856
O          5.13653        2.46126        2.34438
C          6.39220        2.14694        2.62877
O          7.26514        1.80351        1.85078
C          6.66214        2.26599        4.13567
N          8.05784        1.91499        4.31471
C          8.69962        1.74939        5.47712
N          9.99650        1.38385        5.48641
C         10.75117        1.35482        6.75751
C         12.21722        1.66505        6.51839
C         13.07598        1.45401        7.77174
C         14.58368        1.70208        7.56029
C         14.88501        3.18745        7.28071
C         16.35338        3.50099        6.92989
C         16.55517        4.94587        6.56690
C         17.06064        5.91998        7.34612
C         17.54088        5.71436        8.75935
C         17.18540        7.33096        6.83435
C         15.36413        1.17233        8.77182
O         10.18903        2.33407        7.62018
C          8.84476        2.04396        7.92920
N          8.08135        1.93227        6.65209
C          8.27387        3.12283        8.84355
C          8.53007        4.60156        8.47211
C          7.88957        5.08260        7.14730
C          6.36214        4.98363        7.05154
C          8.10979        5.48601        9.65672
H          2.78909       -0.52737       -2.23395
H          2.26806       -0.73961       -0.55221
H          3.88085       -1.28260       -1.05862
H          2.93318        1.65773       -1.02180
H          4.53449        1.12149       -1.52579
H          4.98055        0.22826        0.77832
H          3.36282        0.73815        1.29825
H          3.95158        3.13335        0.83449
H          5.58848        2.62464        0.30444
H          5.98190        1.57928        4.66679
H          6.44245        3.29465        4.46326
H          8.50320        1.65925        3.42542
H         10.52212        1.45542        4.62077
H         10.62233        0.35476        7.21357
H         12.28713        2.70119        6.15181
H         12.57769        1.00412        5.71117
H         12.93498        0.41706        8.12099
H         12.71009        2.10690        8.58098
H         14.89886        1.11836        6.67399
H         14.59633        3.78680        8.16228
H         14.25511        3.55069        6.45138
H         16.65919        2.86592        6.08017
H         17.00521        3.22065        7.76857
H         16.22890        5.22807        5.55933
H         17.42382        4.68423        9.11526
H         16.99275        6.37382        9.45142
H         18.60421        5.98691        8.85309
H         16.82031        7.42574        5.80389
H         18.23434        7.66804        6.85853
H         16.62107        8.03477        7.46770
H         15.11083        1.73793        9.68202
H         16.44833        1.24954        8.62416
H         15.13468        0.11400        8.96018
H          8.78288        1.05911        8.42949
H          7.13040        2.28616        6.64474
H          8.71841        2.93579        9.83246
H          7.19600        2.92271        8.97091
H          9.61858        4.71276        8.34525
H          8.35650        4.55703        6.29905
H          8.17493        6.13792        7.01580
H          5.97863        3.95350        7.15420
H          6.00456        5.36593        6.08549
H          5.86221        5.57248        7.83186
H          7.04401        5.37047        9.90297
H          8.28691        6.54679        9.43344
H          8.68261        5.23679       10.56039
