62

C          0.82746        0.17427        0.34705
C          2.34247        0.27780        0.16677
C          2.77341        0.20342       -1.30181
C          4.30795        0.29868       -1.46140
C          4.76183        0.25806       -2.89426
C          4.94957        1.39294       -3.68847
C          4.74585        2.76087       -3.08109
C          6.01432        3.32207       -2.38237
O          7.08980        3.55452       -3.27208
C          7.11043        4.86680       -3.83816
C          8.32602        4.95932       -4.75199
O          8.20633        6.16943       -5.47479
C          9.30500        6.40337       -6.35362
C          9.04177        7.71403       -7.08316
O         10.07526        7.88150       -8.03619
C          9.93552        9.08513       -8.77961
C          5.35096        1.25162       -5.05791
C          5.55545        2.34307       -5.94269
C          5.94206        2.13026       -7.25170
C          6.15006        0.82250       -7.75848
C          5.96037       -0.26601       -6.93980
C          5.55846       -0.07035       -5.58790
C          5.35921       -1.16125       -4.73964
N          4.96835       -0.99334       -3.46855
N          4.75342       -2.14732       -2.64057
C          3.83334       -3.10960       -3.25655
C          6.03689       -2.73585       -2.23641
H          0.55142        0.23053        1.40794
H          0.44155       -0.77717       -0.04665
H          0.30485        0.98822       -0.17584
H          2.84009       -0.52917        0.72960
H          2.70520        1.22283        0.60418
H          2.28951        1.01162       -1.87514
H          2.42210       -0.74288       -1.74281
H          4.77136       -0.52254       -0.90199
H          4.66270        1.23157       -1.00630
H          3.94068        2.72785       -2.33535
H          4.41086        3.47232       -3.84651
H          6.37895        2.59701       -1.63829
H          5.73750        4.24676       -1.84541
H          7.16400        5.62744       -3.03924
H          6.19922        5.07198       -4.43305
H          8.34410        4.08537       -5.43418
H          9.25811        4.93496       -4.15580
H          9.39792        5.58096       -7.08882
H         10.25328        6.46140       -5.78762
H          9.02329        8.55464       -6.36217
H          8.04915        7.67266       -7.57499
H         10.77415        9.12626       -9.48454
H          9.97107        9.97282       -8.12176
H          8.98495        9.10187       -9.34463
H          5.41504        3.36259       -5.59295
H          6.09257        2.98653       -7.91021
H          6.45735        0.68578       -8.79519
H          6.11200       -1.28152       -7.30885
H          5.50886       -2.18694       -5.07394
H          2.91722       -2.59513       -3.57068
H          3.57144       -3.84023       -2.48117
H          4.25838       -3.66356       -4.11482
H          6.65738       -1.97506       -1.74684
H          6.60050       -3.17500       -3.08155
H          5.82147       -3.52942       -1.51053
