42

C          0.85721        1.11922       -0.03932
C          2.02573        1.72876        0.16318
C          2.98879        1.36370        1.27376
C          4.35428        1.00425        0.77319
N          5.30798        1.96857        0.44574
C          6.43784        1.40075       -0.01347
N          6.20885        0.07811        0.01021
C          4.93354       -0.21342        0.49044
C          4.41833       -1.60889        0.59325
C          4.27477       -2.32444       -0.76688
C          3.74412       -3.75304       -0.61871
C          3.61435       -4.48855       -1.95599
C          3.09217       -5.92176       -1.81067
C          2.96894       -6.65179       -3.14928
C          7.71242        2.06768       -0.42188
C          8.46012        1.26757       -1.46279
C          9.62600        0.65951       -1.23059
H          0.18716        1.43013       -0.84029
H          0.51925        0.29782        0.59625
H          2.32533        2.55662       -0.48752
H          2.59033        0.51766        1.85044
H          3.08297        2.20397        1.98414
H          5.18176        2.97131        0.55515
H          6.90064       -0.60132       -0.30241
H          3.44296       -1.57707        1.09909
H          5.08410       -2.19541        1.24932
H          5.25287       -2.35260       -1.27859
H          3.60385       -1.73759       -1.41471
H          2.76115       -3.72540       -0.11777
H          4.41172       -4.32328        0.05035
H          4.59694       -4.50908       -2.45948
H          2.94208       -3.92097       -2.62279
H          2.11085       -5.90029       -1.30810
H          3.76426       -6.48512       -1.14194
H          2.27473       -6.13166       -3.82535
H          2.59571       -7.67528       -3.01311
H          3.94168       -6.71786       -3.65854
H          8.34481        2.20868        0.47133
H          7.47155        3.07391       -0.80247
H          7.99635        1.21175       -2.45212
H         10.12253        0.71411       -0.25891
H         10.13934        0.10342       -2.01489
