53

C          0.70479        4.50503        2.34408
C          2.20637        4.46225        2.63457
C          2.97114        3.53436        1.68352
C          4.48172        3.51367        1.96792
C          5.18556        2.59900        0.97445
N          6.72135        2.64624        0.98690
C          7.20024        2.15672        2.35215
O          6.65428        0.90083        2.55474
C          7.30525        0.13639        3.60286
C          6.64998       -1.23205        3.66348
C          7.28420       -2.12574        4.73374
C          7.21153        1.71134       -0.11243
C          8.71478        1.80934       -0.33814
O          9.12007        3.14806       -0.59501
C          8.80765        3.98066        0.51097
C          7.28884        4.07590        0.74399
C          6.57730        4.80696       -0.39948
C          6.87901        6.31565       -0.39190
C          5.87915        7.12038       -1.20920
Br         4.05754        7.01628       -0.45099
H          0.18617        5.18117        3.03593
H          0.24757        3.51007        2.44809
H          0.50449        4.85773        1.32190
H          2.37467        4.13753        3.67493
H          2.62852        5.47842        2.55790
H          2.80564        3.86365        0.64337
H          2.56439        2.51119        1.75506
H          4.65318        3.16983        2.99948
H          4.85825        4.54618        1.89935
H          4.88870        2.83072       -0.05448
H          4.93893        1.54820        1.16621
H          6.85713        2.90785        3.08504
H          8.30075        2.13326        2.34534
H          7.19802        0.67310        4.56239
H          8.38406        0.05818        3.37031
H          6.73247       -1.70740        2.67353
H          5.57584       -1.09999        3.86491
H          8.35185       -2.29954        4.53753
H          6.78963       -3.10434        4.75794
H          7.19311       -1.68488        5.73658
H          6.67062        2.00026       -1.02126
H          6.91127        0.69749        0.17731
H          8.96940        1.22108       -1.22951
H          9.28616        1.38887        0.51106
H          9.18349        4.98293        0.27070
H          9.34605        3.64358        1.41530
H          7.10576        4.61340        1.68652
H          5.48996        4.70633       -0.29743
H          6.86300        4.37536       -1.36963
H          7.87783        6.51862       -0.81282
H          6.88636        6.69996        0.64079
H          5.78163        6.76368       -2.24041
H          6.12220        8.18681       -1.21279
