56

C          2.13137       -0.32205        3.60266
C          2.32566       -0.56911        2.12403
O          3.46235       -1.49522        1.97619
C          3.69186       -1.97101        0.74951
O          3.03990       -1.74503       -0.24880
C          4.96232       -2.85261        0.77956
N          4.87779       -3.84803       -0.32141
C          4.50129       -5.10360       -0.03285
C          4.29857       -6.05146       -1.04400
C          3.87953       -7.36877       -0.72760
C          3.63327       -8.29186       -1.72517
C          3.80343       -7.88126       -3.07961
C          4.22417       -6.61288       -3.42109
C          4.49397       -5.65405       -2.41304
C          4.92134       -4.31622       -2.67712
C          5.08973       -3.45187       -1.61642
C          5.12057       -3.79459       -4.07187
C          3.78038       -3.34027       -4.74760
C          3.66241       -1.81009       -4.81978
N          3.87840       -1.18604       -3.50895
O          3.61055       -3.92756       -6.03365
C          3.17693       -9.68992       -1.40907
C          4.21432      -10.81404       -1.66427
C          5.48818      -10.69774       -0.80818
O          6.29986       -9.57360       -1.16093
O          3.60413      -12.08793       -1.48381
C          6.23341       -1.99901        0.72424
H          1.30214        0.38409        3.74361
H          3.02981        0.11576        4.05686
H          1.88194       -1.24962        4.13440
H          2.57476        0.34848        1.57205
H          1.45091       -1.03178        1.64789
H          4.95547       -3.42925        1.71320
H          4.34977       -5.34036        1.01969
H          3.75389       -7.64723        0.32044
H          3.58483       -8.59742       -3.87441
H          4.32578       -6.34264       -4.47164
H          5.34028       -2.40827       -1.78282
H          5.55815       -4.57654       -4.70516
H          5.82197       -2.95041       -4.04739
H          2.93819       -3.73923       -4.15832
H          2.69193       -1.56849       -5.28918
H          4.45033       -1.43975       -5.49933
H          3.08483       -1.35061       -2.88608
H          3.95596       -0.17451       -3.61110
H          4.19064       -3.47290       -6.66777
H          2.29535       -9.93403       -2.02150
H          2.86009       -9.74286       -0.35475
H          4.51205      -10.79563       -2.72655
H          6.04327      -11.64548       -0.89441
H          5.21792      -10.56617        0.25384
H          6.88975       -9.84108       -1.88162
H          3.32951      -12.18202       -0.55629
H          6.23690       -1.31060       -0.12965
H          7.12315       -2.63898        0.67272
H          6.29132       -1.39892        1.63982
