76

C          0.75341       -0.45190        0.45616
C          2.27449       -0.33338        0.33125
C          2.79788       -0.66934       -1.06964
C          4.31997       -0.55917       -1.20118
C          4.84636       -0.91456       -2.59538
C          6.36987       -0.81325       -2.71780
C          6.90827       -1.21206       -4.09551
C          8.43448       -1.12983       -4.19820
C          8.99320       -1.60746       -5.54258
C         10.52329       -1.56912       -5.60621
C         11.10841       -2.14076       -6.90162
C         12.64107       -2.14652       -6.91054
C         13.24716       -2.84427       -8.13419
C         14.77921       -2.78405       -8.20092
C         15.44659       -3.50779       -7.00292
C         16.92136       -3.35832       -6.98392
N         17.85394       -4.27880       -7.27176
C         17.66606       -5.69120       -7.65795
C         17.23153       -5.87342       -9.11512
C         18.20704       -5.30679      -10.15235
C         17.76269       -5.59774      -11.58752
N         19.11907       -3.76955       -7.19814
C         18.94861       -2.51798       -6.85404
N         17.61415       -2.21605       -6.70721
C         17.06422       -0.93328       -6.32937
C         17.19193        0.13805       -7.21658
C         16.66979        1.37976       -6.84989
C         16.02534        1.53373       -5.61891
C         15.90897        0.45062       -4.74252
C         16.43536       -0.79470       -5.09044
H          0.41120       -0.20632        1.47092
H          0.41252       -1.47315        0.22908
H          0.24105        0.22828       -0.24058
H          2.75782       -0.99873        1.06691
H          2.58839        0.68972        0.59982
H          2.31753       -0.00255       -1.80756
H          2.48156       -1.69263       -1.33970
H          4.79810       -1.21793       -0.45452
H          4.63578        0.46694       -0.94197
H          4.37383       -0.25571       -3.34499
H          4.52820       -1.94013       -2.85357
H          6.83836       -1.45278       -1.94860
H          6.68767        0.21839       -2.48452
H          6.45176       -0.57157       -4.87026
H          6.58429       -2.24209       -4.32706
H          8.88256       -1.73379       -3.38896
H          8.75940       -0.09076       -4.01273
H          8.57317       -0.99484       -6.35899
H          8.64879       -2.63943       -5.73137
H         10.93085       -2.13610       -4.74979
H         10.87110       -0.52947       -5.47198
H         10.73611       -1.56762       -7.76772
H         10.74141       -3.17259       -7.04045
H         12.98247       -2.64037       -5.98326
H         13.01640       -1.10885       -6.85656
H         12.85462       -2.37890       -9.05210
H         12.91522       -3.89628       -8.16489
H         15.10296       -1.73182       -8.21078
H         15.14060       -3.23578       -9.13732
H         15.19537       -4.57719       -7.01740
H         15.04650       -3.10264       -6.06265
H         16.93742       -6.12868       -6.96197
H         18.64049       -6.15765       -7.46846
H         16.22659       -5.44448       -9.26317
H         17.11633       -6.95919       -9.26433
H         19.20982       -5.72900       -9.97662
H         18.31086       -4.21755      -10.01419
H         17.68895       -6.67893      -11.77201
H         18.47715       -5.18640      -12.31195
H         16.77900       -5.15545      -11.80324
H         19.74494       -1.80048       -6.68577
H         17.68453       -0.00229       -8.17952
H         16.76532        2.22546       -7.53074
H         15.61734        2.50435       -5.33710
H         15.41761        0.57578       -3.77792
H         16.37441       -1.63913       -4.40327
