52

N          2.24711       -0.93764        2.43278
C          1.68925       -0.25826        1.25954
C          2.45319        1.03678        0.94520
C          3.99999        0.93780        0.96064
C          4.54290       -0.33077        0.30222
N          4.39423       -0.24261       -1.20101
C          5.14295        0.93143       -1.84025
C          4.57588        2.21583       -1.19873
C          4.66693        2.18543        0.33886
C          5.19100        3.50650       -1.79427
C          5.33350        3.53167       -3.30456
C          6.62617        3.57190       -3.85325
C          6.84211        3.55824       -5.23109
C          5.74530        3.51173       -6.09205
C          4.45486        3.50473       -5.56228
C          4.22089        3.51823       -4.17850
C          2.79383        3.54009       -3.68157
C          6.66382        0.75742       -1.73762
C          7.32243       -0.57850       -2.15177
C          6.88220       -1.09160       -3.54122
F          6.95736       -0.13342       -4.49084
F          7.59286       -2.14754       -3.94163
F          5.55204       -1.50018       -3.48620
O          8.72599       -0.47692       -2.07912
H          1.75692       -1.81535        2.60759
H          2.12107       -0.37064        3.27326
H          0.61450       -0.00990        1.33841
H          1.76226       -0.96132        0.40951
H          2.17521        1.81048        1.67811
H          2.08510        1.42153       -0.02143
H          4.31434        0.85930        2.01120
H          4.01273       -1.22643        0.64772
H          5.61260       -0.46364        0.50590
H          3.39585       -0.13139       -1.42375
H          4.69024       -1.11428       -1.66264
H          4.84810        0.90798       -2.89878
H          3.50616        2.22085       -1.46991
H          4.18910        3.09212        0.73830
H          5.72125        2.23905        0.65438
H          6.18182        3.67387       -1.34458
H          4.56413        4.34513       -1.44995
H          7.48358        3.64361       -3.17826
H          7.85689        3.59826       -5.62778
H          5.89124        3.50320       -7.17245
H          3.59825        3.50313       -6.23942
H          2.12100        3.91851       -4.46052
H          2.66767        4.17995       -2.79659
H          2.42912        2.53362       -3.41577
H          7.02794        0.97128       -0.72390
H          7.08013        1.54004       -2.38856
H          7.06750       -1.39038       -1.44869
H          9.03394        0.22746       -2.67592
