71

C          2.82579       -1.56655        0.48877
C          3.61256       -0.37883       -0.07130
C          4.29758        0.44826        1.02738
C          5.09278        1.60050        0.43640
O          5.61228        2.49497        1.48910
C          6.81351        2.21241        1.98906
O          7.55830        1.31040        1.66087
C          7.16785        3.22086        3.10428
C          8.63985        3.37812        3.20863
N          9.51781        2.59603        3.88421
C          9.18490        1.39035        4.68759
C         10.41433        0.77560        5.34627
C         10.06119       -0.44663        6.20296
N         11.28346       -1.00199        6.76235
C         11.05878       -2.21878        7.56494
C         12.32404       -2.68770        8.24057
C         12.93955       -3.89369        7.88715
C         14.09145       -4.34777        8.53364
C         14.65239       -3.58165        9.55729
C         14.06477       -2.37009        9.92523
C         12.91137       -1.92980        9.27110
O         12.30093       -0.73405        9.60069
C         10.76697        3.11134        3.63087
N         10.70475        4.16123        2.84558
N          9.37972        4.30820        2.58752
C          8.90555        5.39730        1.66617
O          8.01546        6.25555        2.27162
C          8.61400        7.25547        3.14560
C          7.54458        8.27473        3.49078
C          8.07584        9.42034        4.36149
C          6.99917       10.46184        4.69198
C          7.52507       11.62982        5.52840
H          2.34255       -2.13394       -0.31721
H          2.03776       -1.23487        1.18041
H          3.48165       -2.25910        1.03587
H          2.93687        0.27336       -0.64910
H          4.37132       -0.74189       -0.78409
H          4.96823       -0.19810        1.61608
H          3.53956        0.84976        1.71921
H          4.46103        2.26425       -0.16686
H          5.94293        1.25089       -0.16390
H          6.75590        2.83322        4.04860
H          6.69661        4.19360        2.91857
H          8.70151        0.68117        4.00063
H          8.44845        1.70014        5.44451
H         10.90920        1.52412        5.98838
H         11.14251        0.45408        4.58627
H          9.58901       -1.21863        5.57129
H          9.30440       -0.16320        6.97075
H         11.72416       -0.30831        7.37169
H         10.69670       -3.01062        6.89126
H         10.27134       -2.06113        8.33317
H         12.49442       -4.49118        7.08885
H         14.54661       -5.29371        8.24166
H         15.55095       -3.92150       10.07309
H         14.50088       -1.76388       10.72398
H         12.76965       -0.34708       10.35789
H         11.68632        2.70242        4.03261
H          8.39034        4.90790        0.82815
H          9.83890        5.87204        1.32330
H          9.46043        7.72238        2.61127
H          9.00993        6.76140        4.05100
H          6.71363        7.76469        4.00516
H          7.13279        8.67846        2.55214
H          8.91448        9.91775        3.84414
H          8.49338        9.01622        5.30027
H          6.16918        9.96817        5.22463
H          6.56925       10.84528        3.75167
H          7.93177       11.28514        6.49048
H          6.72842       12.35343        5.74624
H          8.32705       12.16901        5.00330
