54

C          0.02870        0.42164        0.45246
C          1.46649        0.86555        0.17135
C          2.34794        0.87871        1.42535
C          3.79134        1.32196        1.16385
C          4.67817        1.25459        2.41166
C          6.12582        1.69343        2.16563
C          7.01836        1.52635        3.40028
C          8.46892        1.96880        3.17302
C          9.34923        1.66108        4.39137
N         10.74563        2.12197        4.27520
C         11.04658        3.44334        4.84492
C         12.33473        4.00225        4.26587
C         13.46810        2.97823        4.36711
N         13.00488        1.71258        3.73855
C         11.69706        1.37182        3.69832
N         11.35244        0.24564        3.02183
C         13.98593        0.92222        2.99624
C         14.39260       -0.43773        3.53044
C         14.09625       -1.16705        4.61326
Br        12.93610       -0.72951        6.04933
Br        15.62210       -1.24449        2.30348
C         14.01594        2.77074        5.78082
H         -0.57475        0.40766       -0.46539
H         -0.46714        1.09746        1.16508
H          0.00011       -0.59055        0.88285
H          1.46200        1.87085       -0.28311
H          1.91876        0.19685       -0.58081
H          2.35330       -0.13089        1.87335
H          1.89404        1.54117        2.18344
H          3.79358        2.35088        0.76359
H          4.23010        0.68856        0.37268
H          4.67413        0.22098        2.80017
H          4.23885        1.87804        3.20955
H          6.14226        2.74692        1.83724
H          6.54844        1.10840        1.33007
H          7.00342        0.46689        3.71268
H          6.59208        2.09469        4.24469
H          8.50644        3.04988        2.96146
H          8.87409        1.47307        2.27460
H          9.34799        0.58454        4.62742
H          8.94072        2.15437        5.28527
H         11.09884        3.35333        5.94272
H         10.20252        4.10647        4.61063
H         12.61143        4.91753        4.80420
H         12.18077        4.27373        3.21113
H         14.29012        3.32646        3.72357
H         12.02772       -0.51143        2.97017
H         10.38424       -0.04749        3.04048
H         14.89799        1.53121        2.92277
H         13.63724        0.78362        1.95805
H         14.54042       -2.14815        4.76297
H         13.23707        2.45504        6.48612
H         14.45403        3.71015        6.14355
H         14.80347        2.00657        5.79246
