50

C          3.65425       -6.26162        1.58078
C          4.09655       -4.80220        1.45601
C          5.54247       -4.58554        1.92458
C          5.95000       -3.11595        1.81361
S          7.68926       -2.95451        2.37931
C          7.82371       -1.23674        2.42349
N          6.97421       -0.28915        2.12756
N          7.63282        0.92420        2.38119
C          8.81574        0.60275        2.80431
O          9.05212       -0.72763        2.86988
N          9.84087        1.44176        3.20389
C          9.74132        2.81027        3.27321
N         10.79757        3.49756        3.73118
C         10.81236        4.97016        3.86377
C         12.25328        5.46059        3.70057
C         12.43797        6.94816        4.02689
N         13.85126        7.29696        3.90657
C          9.83525        5.54692        2.83674
C          8.46061        4.88193        2.91923
N          8.62528        3.41456        2.89366
C          7.52614        5.29863        1.76854
C          6.16830        4.66245        1.86519
C          5.68817        3.77643        0.98848
H          2.61623       -6.38926        1.24734
H          3.71589       -6.60956        2.62201
H          4.28474       -6.92354        0.96970
H          3.42474       -4.15886        2.04753
H          3.99941       -4.47098        0.40936
H          6.22125       -5.21162        1.32217
H          5.64544       -4.92086        2.96928
H          5.33219       -2.47011        2.45085
H          5.89507       -2.75004        0.78007
H         10.69984        0.99396        3.50885
H         11.63890        2.99418        3.99391
H         10.46073        5.21979        4.88087
H         12.60782        5.26567        2.67657
H         12.90104        4.87768        4.38031
H         11.99466        7.15821        5.02265
H         11.88360        7.55927        3.29895
H         14.38895        6.93876        4.69673
H         13.97901        8.30821        3.89875
H         10.25076        5.41604        1.82432
H          9.71721        6.62365        3.01064
H          7.98034        5.14481        3.87805
H          7.84551        2.81010        2.56720
H          8.00202        5.04606        0.80786
H          7.43649        6.39640        1.81230
H          5.55689        4.95492        2.72568
H          6.26240        3.46815        0.11173
H          4.69845        3.33605        1.10594
