69

C          2.28279       -1.23794        1.27279
C          3.49972       -0.85951        0.86695
C          3.69448        0.40014        0.10771
O          2.83357        1.19960       -0.20587
O          5.01681        0.55734       -0.21314
C          5.32705        1.74079       -0.98313
C          6.82392        1.72516       -1.24565
C          7.29629        2.90817       -2.09840
C          8.81050        2.88041       -2.32333
C          9.35298        4.04950       -3.15104
C         10.88421        4.08726       -3.13436
C         11.51495        5.32803       -3.81614
C         12.80073        4.96146       -4.58196
C         13.83889        4.81637       -3.46944
N         13.40297        5.83073       -2.40400
C         12.06185        6.43381       -2.88539
C         11.23877        7.01910       -1.71478
C         10.98568        6.13739       -0.50948
C          9.70150        5.65129       -0.22888
C          9.46615        4.81138        0.85757
C         10.50449        4.42255        1.71939
C         11.77850        4.95778        1.47939
C         12.01253        5.80784        0.39511
C         10.25321        3.47897        2.86424
C         14.45195        6.84813       -2.07424
C         15.60757        6.24314       -1.27685
O         16.53590        7.29238       -1.13329
C         17.68929        6.94088       -0.38342
C         18.67280        8.10659       -0.47473
F         19.05553        8.33425       -1.75244
F         18.13914        9.25065        0.00860
F         19.77664        7.81299        0.25195
H          2.12928       -2.16375        1.82594
H          1.41039       -0.62028        1.05291
H          4.39061       -1.45626        1.06746
H          5.01288        2.63241       -0.41742
H          4.74397        1.72493       -1.91731
H          7.08679        0.77894       -1.74521
H          7.35756        1.72565       -0.28053
H          7.01814        3.85733       -1.60652
H          6.77194        2.90430       -3.06880
H          9.09229        1.93000       -2.80800
H          9.31414        2.87752       -1.34149
H          8.94907        4.99769       -2.76319
H          8.99834        3.97751       -4.19261
H         11.25552        3.18370       -3.64427
H         11.22083        3.99548       -2.08868
H         10.78311        5.78632       -4.49735
H         13.09249        5.76128       -5.27816
H         12.70161        4.03570       -5.16027
H         14.86331        5.05030       -3.77641
H         13.82539        3.82328       -3.00539
H         13.16650        5.32482       -1.52974
H         12.35676        7.27919       -3.52668
H         10.28130        7.33602       -2.15240
H         11.73024        7.95124       -1.39211
H          8.86587        5.94173       -0.86653
H          8.45134        4.45406        1.04330
H         12.59383        4.73300        2.16949
H         12.99495        6.28348        0.31834
H          9.25239        3.62355        3.29125
H         10.99168        3.60767        3.66536
H         10.31343        2.43302        2.52533
H         13.98428        7.65331       -1.49398
H         14.81683        7.27152       -3.01924
H         16.05927        5.38034       -1.80541
H         15.24929        5.87848       -0.29183
H         18.18708        6.04370       -0.79162
H         17.44904        6.77187        0.68104
