72

C         20.76528        2.86738        2.01357
C         19.93847        1.90392        2.86816
C         18.43054        2.02539        2.62931
C         17.59142        1.09031        3.50572
C         16.10051        1.43301        3.47705
C         15.22837        0.51669        4.34391
C         13.80859        1.06818        4.50388
C         12.94232        0.27595        5.46579
O         11.64572        0.91795        5.48428
C         10.71303        0.37202        6.36980
C         10.81860        0.84009        7.80286
N         10.23518        0.16678        8.80905
N         10.44115        0.84445        9.92196
N         11.13187        1.91883        9.63087
N         11.39927        1.95889        8.29296
C         12.15354        3.06214        7.64131
C         11.37238        3.80980        6.54961
C          9.91618        4.20099        6.83648
C          9.70560        5.07652        8.06478
O         10.48375        5.13209        8.99561
O          8.55910        5.79053        8.11340
C         11.67876        2.79710       10.68055
C         13.03052        2.27145       11.16355
O         13.83894        2.09271       10.01959
C         15.21801        1.83331       10.31050
C         15.95914        1.62854        9.00865
O         15.91780        2.82647        8.25011
C         16.84681        2.82007        7.16722
C         16.79079        4.18090        6.48957
O         17.70451        4.14205        5.41115
C         17.86605        5.40315        4.77488
H         21.84001        2.76604        2.21580
H         20.48900        3.91448        2.21243
H         20.61066        2.68596        0.93963
H         20.14237        2.09079        3.93625
H         20.26002        0.86682        2.67397
H         18.20532        1.83619        1.56516
H         18.12011        3.06556        2.82439
H         17.95188        1.15953        4.54677
H         17.74735        0.04278        3.19553
H         15.72854        1.41337        2.43831
H         15.98145        2.47499        3.82236
H         15.69334        0.40425        5.33969
H         15.19594       -0.49664        3.91085
H         13.30170        1.10415        3.52676
H         13.86690        2.11066        4.86158
H         13.37854        0.27048        6.48469
H         12.82144       -0.77379        5.14456
H         10.73177       -0.73268        6.40375
H          9.71002        0.65945        6.00903
H         13.07011        2.61856        7.23412
H         12.45668        3.73272        8.44526
H         11.39068        3.21405        5.62948
H         11.96169        4.71831        6.35424
H          9.28151        3.30668        6.97146
H          9.51485        4.70426        5.94342
H          8.03995        5.68289        7.29634
H         10.93212        2.77359       11.48305
H         11.72055        3.81410       10.27705
H         12.89940        1.32210       11.71666
H         13.45170        3.02142       11.85908
H         15.31504        0.92500       10.93326
H         15.64768        2.68861       10.86192
H         15.51342        0.78673        8.44017
H         17.00298        1.34965        9.24865
H         16.59976        2.02536        6.44092
H         17.87160        2.63035        7.53640
H         17.05824        4.97343        7.21502
H         15.75962        4.38905        6.13314
H         18.59480        5.26134        3.96811
H         18.24888        6.16321        5.47921
H         16.91479        5.76501        4.34283
