45

C          4.19172        1.48183        5.37068
C          3.77224        0.16872        4.70704
C          4.65097       -0.21080        3.50886
C          4.24369       -1.54019        2.86230
C          5.06842       -1.95104        1.63207
C          6.59194       -2.06775        1.85484
P          7.08837       -3.17258        3.20808
C          6.45030       -4.85930        2.97828
C          6.79318       -5.86616        4.09412
C          6.43456       -5.41329        5.53073
C          5.10854       -4.82045        5.64810
C          4.01599       -4.30304        5.71435
C          8.89022       -3.13782        3.45790
C          9.46462       -1.73589        3.74023
C          8.93540       -1.06909        5.01758
N          9.55216        0.24289        5.17252
H          3.54160        1.72463        6.22108
H          4.14025        2.32251        4.66419
H          5.22436        1.43032        5.74810
H          2.72348        0.23953        4.37484
H          3.80045       -0.64836        5.44851
H          5.70336       -0.24537        3.84824
H          4.61294        0.59225        2.75270
H          3.19071       -1.47873        2.54624
H          4.26556       -2.34196        3.62250
H          4.93227       -1.20808        0.83112
H          4.68496       -2.90003        1.22760
H          7.03756       -1.08985        2.09452
H          7.10176       -2.43657        0.95074
H          6.48903       -2.68899        4.39037
H          6.81788       -5.21410        2.00342
H          5.35846       -4.74022        2.89470
H          7.86112       -6.12552        4.06235
H          6.24314       -6.78865        3.86040
H          7.18218       -4.69307        5.90885
H          6.51081       -6.28390        6.20033
H          3.04006       -3.87478        5.81769
H          9.33856       -3.57586        2.55253
H          9.10282       -3.83066        4.28764
H          9.29825       -1.06178        2.88728
H         10.55709       -1.85005        3.82021
H          9.08068       -1.76157        5.87505
H          7.84752       -0.90117        4.93884
H         10.54098        0.16408        5.41427
H          9.10723        0.77436        5.91995
