87

C          6.78415        8.67025       -2.18087
C          7.51252        7.37379       -1.81673
C          8.01806        7.34945       -0.37007
C          8.73297        6.04973        0.01250
C          9.22984        6.02596        1.46151
C          9.89513        4.70471        1.85925
C         10.36551        4.66660        3.31669
C         10.96028        3.31724        3.73013
C         11.38899        3.25676        5.19976
C         11.87968        1.87101        5.62917
C         12.25888        1.78199        7.11145
C         12.66449        0.36178        7.52549
C         12.82722        0.15162        9.04403
C         13.88254        1.07455        9.67537
N         15.22734        0.67242        9.24771
C         15.54361       -0.60619        9.00588
N         16.81127       -0.94579        8.66567
C         17.90613       -0.02459        8.54673
C         18.41436        0.61218        9.68707
C         19.49407        1.48921        9.55879
C         20.07804        1.70684        8.30786
C         19.57732        1.05378        7.17786
C         18.48304        0.19424        7.29020
N         14.60813       -1.55240        9.07883
C         13.20556       -1.29290        9.44560
C         12.31600       -2.38700        8.83244
C         12.78592       -3.80159        9.14084
O         13.96946       -4.13514        9.16689
O         11.76157       -4.63099        9.32150
C         12.06635       -6.05868        9.51802
C         12.28635       -6.39378       10.98473
C         12.48234       -7.90361       11.18275
C         12.73367       -8.29334       12.64321
C         12.93111       -9.80040       12.84231
C         13.19056      -10.18904       14.29954
H          6.43466        8.65852       -3.22243
H          7.44086        9.54483       -2.06099
H          5.90529        8.82815       -1.53792
H          8.36411        7.22306       -2.50176
H          6.83974        6.51463       -1.97968
H          7.16637        7.51077        0.31456
H          8.69893        8.20389       -0.20804
H          9.58562        5.88528       -0.66980
H          8.04923        5.19777       -0.15038
H          8.38061        6.22197        2.13983
H          9.93899        6.85749        1.61990
H         10.75224        4.50842        1.19124
H          9.18457        3.87680        1.68741
H          9.51386        4.90346        3.97865
H         11.10883        5.46565        3.48521
H         11.82440        3.08085        3.08460
H         10.21671        2.52320        3.53942
H         10.53735        3.55122        5.83789
H         12.17901        4.00543        5.38606
H         12.74528        1.57621        5.01017
H         11.09074        1.12860        5.41625
H         11.40254        2.11172        7.72569
H         13.07489        2.49607        7.31489
H         13.58712        0.07213        6.99453
H         11.88409       -0.32521        7.16424
H         11.86871        0.38315        9.53529
H         13.81631        1.04535       10.77464
H         13.73381        2.11418        9.36322
H         15.95766        1.36649        9.12006
H         16.94585       -1.88655        8.30673
H         17.98357        0.39982       10.66630
H         19.89415        1.98356       10.44406
H         20.93045        2.37959        8.21418
H         20.03539        1.21724        6.20254
H         18.07816       -0.30964        6.41143
H         14.83488       -2.56008        9.02632
H         13.11942       -1.37185       10.54483
H         12.30828       -2.30309        7.73417
H         11.28210       -2.25916        9.17564
H         12.94310       -6.30892        8.90615
H         11.17936       -6.56284        9.11489
H         11.41956       -6.04633       11.56934
H         13.16998       -5.85164       11.35656
H         13.32901       -8.24780       10.56406
H         11.59372       -8.44105       10.80941
H         11.88840       -7.95015       13.26487
H         13.62268       -7.75589       13.01708
H         13.77119      -10.14123       12.21424
H         12.04091      -10.33438       12.47051
H         14.10085       -9.70746       14.68667
H         13.31901      -11.27443       14.40760
H         12.35536       -9.88807       14.94913
