67

C          2.53219        4.22394       -4.92131
C          3.86173        4.14162       -5.67294
C          4.97301        4.97895       -5.02994
C          6.29839        4.89460       -5.79319
C          7.41889        5.76563       -5.23683
O          7.81886        5.45456       -3.87647
C          8.42343        4.20294       -3.72322
C          9.24072        4.17333       -2.39883
C         10.47337        5.13084       -2.54962
O         11.65133        4.29963       -2.59993
C         11.30836        3.05805       -3.11706
N          9.93894        2.80612       -2.44867
C         12.33890        1.99922       -2.78181
C         11.99133        0.60581       -3.32808
C         13.13860       -0.40912       -3.20276
C         13.48109       -0.77419       -1.75487
S         14.82828       -1.97629       -1.73355
O         14.35479       -3.22952       -2.28295
O         16.00902       -1.32118       -2.23364
O         15.01606       -2.17139       -0.13141
C          8.38113        4.31263       -1.07141
C          9.08719        3.66698        0.18820
C         10.53681        4.10323        0.47794
C          8.29361        3.86434        1.49710
C          8.12668        5.84932       -0.84610
O          6.91005        6.14032       -0.17762
C          7.02983        3.60245       -1.28988
H          1.75923        3.61720       -5.41106
H          2.16333        5.25882       -4.87603
H          2.63323        3.86256       -3.88704
H          3.71888        4.47295       -6.71482
H          4.18855        3.08935       -5.73374
H          5.11641        4.65497       -3.98488
H          4.65330        6.03363       -4.97398
H          6.14514        5.22183       -6.83570
H          6.63007        3.84388       -5.86773
H          7.10311        6.81644       -5.18121
H          8.31433        5.70666       -5.88355
H          9.12978        4.01312       -4.56077
H          7.68447        3.37761       -3.72609
H         10.60966        5.81255       -1.70590
H         10.37456        5.72005       -3.47346
H         11.09080        3.08759       -4.20221
H         10.08010        2.46410       -1.48556
H          9.37419        2.11356       -2.95635
H         12.49180        1.99044       -1.69054
H         13.28596        2.34722       -3.22285
H         11.73277        0.69073       -4.39617
H         11.09736        0.20069       -2.81987
H         14.03551       -0.01055       -3.70074
H         12.85779       -1.32549       -3.74113
H         12.63493       -1.24518       -1.23441
H         13.84387        0.07854       -1.16452
H         14.78049       -3.09704        0.07433
H          9.08041        2.56591        0.02633
H         10.58976        5.17882        0.69908
H         11.26005        3.90410       -0.32335
H         10.89698        3.58228        1.37512
H          8.38373        4.90044        1.85860
H          8.72639        3.23017        2.28192
H          7.23239        3.60766        1.41685
H          8.04486        6.34372       -1.82177
H          8.98340        6.29545       -0.31305
H          7.03345        6.04118        0.77822
H          7.16385        2.53657       -1.53660
H          6.44632        4.08170       -2.08423
H          6.41326        3.65319       -0.38944
