67

C          5.97487        4.49041       -3.32065
C          4.52958        4.45938       -2.86770
O          4.32717        3.44518       -1.80988
C          4.53482        3.82497       -0.55684
O          4.86299        4.95434       -0.21102
C          4.36887        2.64185        0.42677
C          4.04011        3.10485        1.83057
N          4.31558        4.30522        2.27366
C          4.08679        4.60437        3.69603
C          3.17256        3.45109        4.21923
S          3.32272        2.06630        2.98283
C          1.70393        3.87085        4.36266
C          0.72209        2.75556        4.74677
C          0.97397        2.10031        6.11936
C         -0.04705        1.02562        6.42267
C          0.21315       -0.31796        6.11564
C         -0.74747       -1.30534        6.34957
C         -1.98650       -0.96093        6.89600
C         -2.25671        0.37376        7.21114
C         -1.29348        1.35755        6.97536
C          5.44124        4.85842        4.44453
C          6.36483        5.86421        3.68185
C          5.98838        7.35559        3.49765
C          7.26262        8.13668        3.13703
C          4.91209        7.62807        2.43530
C          5.14219        5.46406        5.83073
O          4.42363        4.52891        6.64299
C          6.23559        3.54666        4.59903
C          3.44847        1.51407       -0.06624
H          6.07013        5.20704       -4.14834
H          6.30019        3.50787       -3.68604
H          6.64255        4.81698       -2.51380
H          3.85273        4.12595       -3.66230
H          4.19580        5.42717       -2.47445
H          5.39515        2.22844        0.50540
H          4.68450        4.98008        1.57826
H          3.49911        5.53367        3.73950
H          3.55512        3.05602        5.16461
H          1.37071        4.34232        3.42333
H          1.69058        4.65848        5.13596
H          0.71691        1.97436        3.96785
H         -0.29312        3.17948        4.73875
H          0.94633        2.87741        6.90044
H          1.98201        1.65575        6.15474
H          1.18455       -0.59781        5.69909
H         -0.52561       -2.34654        6.11102
H         -2.73581       -1.73094        7.08297
H         -3.21797        0.64839        7.64758
H         -1.50973        2.39735        7.23354
H          6.61646        5.43877        2.69415
H          7.31506        5.84239        4.23891
H          5.62693        7.75338        4.46056
H          7.68894        7.77744        2.18743
H          8.03441        8.03081        3.91196
H          7.04687        9.20715        3.01973
H          5.21493        7.23120        1.45296
H          4.77001        8.71011        2.30938
H          3.92553        7.21519        2.68823
H          4.55950        6.39529        5.71700
H          6.10829        5.72554        6.29773
H          4.36762        4.88291        7.54361
H          6.49029        3.11650        3.61963
H          5.69668        2.79390        5.18584
H          7.18210        3.74506        5.11971
H          2.41263        1.86055       -0.16861
H          3.46702        0.66926        0.63468
H          3.79111        1.15122       -1.03964
