70

C          6.41988       -5.52735        6.54619
C          5.28759       -5.22259        5.56296
C          5.09945       -3.72239        5.31184
C          3.96148       -3.44987        4.32111
N          3.77750       -2.01670        4.03185
C          2.94039       -1.26030        4.76947
S          2.08575       -1.84576        6.09802
S          2.84170        0.44187        4.20967
C          1.80830        1.20414        5.48596
C          0.30488        0.91897        5.32481
C         -0.37188        0.83688        6.70381
N         -1.61504        0.04137        6.65667
C         -1.58233       -1.25617        6.54512
S         -3.05432       -2.06699        6.34926
C         -3.98982       -0.45869        6.30617
C         -2.96176        0.66402        6.63690
C         -3.28352        1.41388        7.94588
C         -3.22788        0.60008        9.23045
F         -1.90214        0.22325        9.50449
C         -4.80100       -0.27057        5.01215
C         -3.91349       -0.07009        3.77735
O         -2.69415       -0.09428        3.79281
O         -4.66669        0.15451        2.69240
C         -3.96171        0.39608        1.42730
C         -3.60477        1.86242        1.27082
C         -5.84081       -1.38756        4.81092
C          4.58352       -1.48653        2.91981
C          3.91315       -1.62341        1.54630
C          4.80934       -1.09441        0.42040
C          4.15961       -1.20252       -0.96119
H          6.51896       -6.60773        6.71587
H          6.24005       -5.05226        7.52183
H          7.38648       -5.15947        6.17185
H          4.34335       -5.64440        5.94621
H          5.48247       -5.73421        4.60508
H          6.03844       -3.28927        4.92790
H          4.87552       -3.20686        6.25844
H          3.01241       -3.83583        4.71568
H          4.16123       -3.94555        3.35879
H          2.04278        2.27531        5.41399
H          2.17925        0.82964        6.45074
H          0.17733       -0.05002        4.82714
H         -0.17749        1.67252        4.68716
H         -0.61948        1.82204        7.11616
H          0.29756        0.33564        7.41514
H         -0.61964       -1.78236        6.54201
H         -4.71552       -0.54225        7.12693
H         -2.94811        1.39454        5.81404
H         -4.29999        1.82523        7.83631
H         -2.62052        2.28555        8.05010
H         -3.82403       -0.32555        9.18402
H         -3.58401        1.20166       10.07909
H         -5.35517        0.67801        5.14111
H         -4.67991        0.06575        0.66807
H         -3.07431       -0.24889        1.40041
H         -4.49586        2.49788        1.35478
H         -3.16711        2.02385        0.27610
H         -2.86576        2.17710        2.01844
H         -5.35674       -2.35735        4.62568
H         -6.47987       -1.16644        3.95008
H         -6.48135       -1.48512        5.69789
H          5.53961       -2.03136        2.93145
H          4.82574       -0.43385        3.12951
H          2.95606       -1.07798        1.55251
H          3.66888       -2.68235        1.36103
H          5.76415       -1.64655        0.42403
H          5.06752       -0.04165        0.62536
H          3.91868       -2.24636       -1.21029
H          4.82622       -0.82014       -1.74543
H          3.22455       -0.62515       -1.00950
