88

C          0.64447       -0.15867       -0.58198
C          2.17391       -0.12540       -0.54542
C          2.74451        1.29057       -0.41660
C          4.27504        1.33724       -0.38885
C          4.84413        2.75437       -0.26908
C          6.37509        2.80253       -0.25250
C          6.94209        4.22090       -0.13694
C          8.47276        4.27024       -0.11300
C          9.03828        5.68744        0.02233
C         10.56846        5.73306        0.07781
C         11.13147        7.14740        0.24855
C         12.66029        7.18910        0.34031
C         13.21526        8.60228        0.54688
C         14.74137        8.64033        0.68369
C         15.27541       10.06003        0.91565
C         16.80660       10.08066        1.08472
P         17.49263       11.75506        1.24539
C         16.79665       12.67474        2.66263
C         17.24138       14.12306        2.66060
C         16.69806       15.02998        1.73728
C         17.11458       16.36157        1.75264
C         18.06083       16.79336        2.68453
C         18.60890       15.90707        3.62394
C         18.19298       14.56668        3.58782
C         19.58390       16.38257        4.66846
C         19.30996       11.77855        1.27411
C         19.99889       11.10955        0.06718
C         19.75853       11.80860       -1.28508
C         20.50932       11.13474       -2.41339
C         19.90704       10.11282       -3.16167
C         20.60890        9.46332       -4.18004
C         21.92671        9.83091       -4.46388
C         22.53590       10.85095       -3.72814
C         21.83113       11.49810       -2.71031
H          0.26453       -1.18539       -0.67534
H          0.25461        0.41961       -1.43294
H          0.21527        0.27324        0.33445
H          2.57543       -0.59513       -1.45924
H          2.53714       -0.74014        0.29547
H          2.34754        1.76009        0.50089
H          2.37604        1.90767       -1.25516
H          4.66986        0.86302       -1.30464
H          4.64354        0.72392        0.45227
H          4.45506        3.22692        0.65000
H          4.46978        3.36876       -1.10676
H          6.76458        2.32759       -1.17011
H          6.74994        2.19114        0.58719
H          6.54905        4.69591        0.77922
H          6.56996        4.83194       -0.97801
H          8.86801        3.80518       -1.03313
H          8.84322        3.65062        0.72257
H          8.62830        6.15603        0.93432
H          8.68380        6.30531       -0.82127
H         10.98224        5.28234       -0.84116
H         10.92012        5.09987        0.91118
H         10.70154        7.60103        1.15875
H         10.79725        7.77935       -0.59279
H         13.09597        6.75417       -0.57581
H         12.99193        6.54363        1.17216
H         12.75901        9.04271        1.45046
H         12.90686        9.24466       -0.29615
H         15.20745        8.21843       -0.22287
H         15.05186        7.99339        1.52166
H         14.79331       10.48444        1.81061
H         14.98655       10.70211        0.06663
H         17.30443        9.62204        0.21472
H         17.12325        9.50744        1.97147
H         17.06940       12.46635        0.09993
H         17.10876       12.15102        3.57876
H         15.70250       12.58263        2.58375
H         15.93684       14.70763        1.02310
H         16.69051       17.07222        1.04262
H         18.37107       17.83983        2.69268
H         18.60283       13.86341        4.31853
H         20.07404       17.31568        4.36507
H         20.36009       15.63251        4.87097
H         19.06510       16.57776        5.61977
H         19.60228       11.28781        2.21686
H         19.59176       12.84029        1.36447
H         19.70741       10.05028       -0.00265
H         21.07827       11.10508        0.27973
H         20.06635       12.86383       -1.20597
H         18.68273       11.81161       -1.52964
H         18.87074        9.82940       -2.95765
H         20.12383        8.67619       -4.75861
H         22.47491        9.32969       -5.26219
H         23.56044       11.14973       -3.95302
H         22.31173       12.30334       -2.14913
