64

Br         3.85505        0.81185       -0.67261
C          3.62168       -0.97524       -1.46876
C          4.13941       -2.07968       -0.55944
C          5.64134       -1.98155       -0.28035
N          6.06409       -3.07208        0.59901
C          7.14899       -3.05587        1.40142
N          7.39835       -4.10925        2.20256
C          8.49876       -4.11660        3.17828
C          9.67876       -3.27834        2.66252
C          9.10171       -1.86886        2.36784
N          7.98751       -2.01996        1.40458
C         10.04114       -0.69161        1.92934
C         10.63379       -0.87989        0.49928
C         11.11299        0.34518       -0.31747
C         12.32206        1.07583        0.28600
C         11.44742       -0.13331       -1.73952
C          9.18208        0.60017        1.94647
O          8.44929        0.68463        3.16753
C         11.13808       -0.58411        3.00765
C         10.44528       -3.95675        1.50952
C         10.89451       -5.40089        1.77131
C         11.87874       -5.86486        0.68977
C         12.35683       -7.30409        0.89353
S         13.55362       -7.73866       -0.38519
O         12.87023       -7.85356       -1.65896
O         14.71223       -6.89753       -0.22265
O         13.97668       -9.23478        0.08986
H          4.14272       -0.93714       -2.43184
H          2.54628       -1.07513       -1.64137
H          3.91562       -3.04076       -1.05693
H          3.58977       -2.06809        0.39384
H          5.83530       -1.02112        0.22231
H          6.21189       -1.99679       -1.22557
H          5.56393       -3.95142        0.51679
H          6.67490       -4.81345        2.29373
H          8.79321       -5.16102        3.33439
H          8.14153       -3.72216        4.14244
H         10.36083       -3.17056        3.51901
H          8.66013       -1.51470        3.31308
H          7.79866       -1.25080        0.77055
H          9.88741       -1.39916       -0.12580
H         11.48730       -1.57035        0.56571
H         10.28313        1.06778       -0.40690
H         13.15075        0.37752        0.47928
H         12.09023        1.58820        1.22886
H         12.69164        1.84084       -0.41010
H         12.27595       -0.85830       -1.72824
H         11.75374        0.70734       -2.37619
H         10.58499       -0.61946       -2.21870
H          8.48855        0.62417        1.07798
H          9.85202        1.46497        1.82785
H          8.16257        1.60055        3.29819
H         11.83194       -1.43391        2.96064
H         10.70256       -0.54299        4.01514
H         11.73395        0.32443        2.87221
H         11.34657       -3.36346        1.30914
H          9.85632       -3.92460        0.57818
H         10.02984       -6.08512        1.79252
H         11.37580       -5.47199        2.76208
H         12.75383       -5.19696        0.68277
H         11.40783       -5.77781       -0.30230
H         11.54014       -8.03567        0.81729
H         12.87525       -7.44195        1.85299
H         13.61869       -9.85759       -0.57156
