53

N          2.29981       -1.90294       -1.22551
C          2.44599       -0.57810       -1.83530
C          1.63439        0.45896       -1.04452
C          2.20920        0.64089        0.38444
C          1.19361        1.05841        1.39129
C          0.51058        0.24064        2.26889
N         -0.39165        1.05682        2.92979
C         -0.28317        2.31974        2.49558
N          0.67583        2.34733        1.56096
C          1.12423        3.57729        0.87501
C          2.46943        4.10779        1.38834
C          2.51782        4.76445        2.77589
C          2.40825        6.33353        2.84540
C          1.09518        7.06475        2.36638
C         -0.25514        6.79343        3.12909
F         -0.09963        6.84521        4.45516
F         -1.16046        7.70066        2.74939
F         -0.74212        5.56034        2.80034
F          1.34042        8.38886        2.46436
F          0.88516        6.75479        1.04915
F          2.64733        6.71379        4.12223
F          3.40362        6.82403        2.05048
F          1.56766        4.23864        3.62665
F          3.73564        4.48204        3.33042
C          0.67872       -1.21816        2.56015
C          2.03341       -1.53593        3.18207
C          2.85993       -2.50518        2.60119
C          4.10274       -2.80447        3.16708
C          4.53153       -2.13179        4.31324
C          3.71241       -1.15925        4.89562
C          2.47050       -0.86297        4.33218
O          1.53926        1.71239       -1.73354
H          3.10237       -2.49259       -1.43878
H          1.47976       -2.38276       -1.59724
H          2.11970       -0.52905       -2.89016
H          3.51242       -0.29716       -1.81053
H          0.59797        0.09087       -0.96020
H          3.05937        1.33678        0.33811
H          2.60586       -0.33051        0.71246
H         -1.04654        0.74966        3.64374
H         -0.84779        3.17087        2.85412
H          0.31912        4.31177        0.97085
H          1.22426        3.32418       -0.18855
H          2.85377        4.82819        0.65438
H          3.20328        3.29212        1.42856
H          0.56705       -1.78777        1.62554
H         -0.13681       -1.54985        3.22317
H          2.53181       -3.02028        1.69626
H          4.73634       -3.56524        2.71011
H          5.50065       -2.36488        4.75479
H          4.04045       -0.63365        5.79293
H          1.83938       -0.10243        4.79859
H          2.32328        1.82303       -2.29585
