75

C          0.90559        0.12405       -0.16959
C          2.39348        0.47022       -0.27028
C          2.96139        1.09487        1.00934
C          4.44214        1.47092        0.90237
C          5.03201        2.03988        2.19650
C          6.50273        2.44613        2.06706
C          7.11962        2.97066        3.36748
C          8.58918        3.37370        3.21696
C          9.25411        3.80955        4.52638
C         10.72116        4.20955        4.34288
C         11.45093        4.52981        5.65007
C         12.91057        4.94002        5.42261
C         13.66529        5.21090        6.72686
C         15.17273        5.54724        6.62801
C         15.69519        5.89658        8.04397
C         17.19660        6.14971        8.25289
N         17.48435        6.15965        9.68102
C         15.98878        4.32853        6.08149
C         17.10924        4.96093        5.35687
N         16.84895        6.19217        5.08355
C         15.50491        6.63864        5.54177
C         15.46615        8.14565        5.89034
C         15.91281        9.00469        4.69065
O         15.24108        9.84904        4.15349
O         17.20001        8.71149        4.31018
C         17.74944        9.53875        3.21932
C         19.16237        9.06941        2.95489
C         14.06897        8.59579        6.33445
H          0.53358       -0.33145       -1.09772
H          0.29922        1.02108        0.02656
H          0.71547       -0.58699        0.64850
H          2.55529        1.16186       -1.11494
H          2.96859       -0.44006       -0.51275
H          2.82095        0.39234        1.85021
H          2.37402        1.99392        1.26830
H          4.57416        2.20414        0.08683
H          5.02301        0.58044        0.60197
H          4.92899        1.29206        3.00234
H          4.43827        2.91327        2.51877
H          6.59973        3.21558        1.28078
H          7.08960        1.58000        1.71301
H          7.03138        2.19703        4.15061
H          6.53645        3.83511        3.73045
H          8.67018        4.18812        2.47540
H          9.15525        2.52502        2.79345
H          9.18846        2.98614        5.25894
H          8.69410        4.65245        4.96713
H         10.77979        5.08095        3.66678
H         11.25460        3.39171        3.82608
H         11.41646        3.65134        6.31713
H         10.92404        5.33830        6.18548
H         12.91863        5.83451        4.77580
H         13.40856        4.14481        4.83825
H         13.57957        4.32767        7.38146
H         13.15970        6.02171        7.27218
H         15.41906        5.05743        8.70263
H         15.13191        6.76321        8.42669
H         17.51752        7.06908        7.71678
H         17.79198        5.32761        7.81405
H         16.97886        6.90454       10.16221
H         18.47698        6.30358        9.86278
H         15.40032        3.74163        5.34957
H         16.31834        3.61917        6.85265
H         18.04991        4.50121        5.04653
H         17.44919        6.87031        4.58559
H         14.83423        6.48648        4.67711
H         16.19565        8.34290        6.69320
H         17.70808       10.58529        3.54879
H         17.09292        9.42886        2.34595
H         19.79421        9.16733        3.84738
H         19.60464        9.68703        2.16198
H         19.18819        8.02605        2.60882
H         13.30644        8.33690        5.58861
H         14.05180        9.68476        6.44992
H         13.78827        8.14825        7.29363
