51

C          8.84625       -2.66535       -1.44265
C          7.55854       -3.21073       -0.85376
O          6.47272       -2.23034       -0.95367
C          5.71622       -2.27900       -2.07145
O          5.91170       -3.02695       -3.01078
C          4.53322       -1.30747       -1.97082
C          4.20986       -0.77609       -3.39342
C          5.44192       -0.09516       -4.01298
N          5.71745        1.22654       -3.40764
C          7.05309        1.80350       -3.64584
C          8.00773        1.72210       -2.43831
C          9.48744        2.02265       -2.81671
N          9.71561        3.47007       -2.71269
O          7.62382        2.65585       -1.42448
C          4.73957        1.92955       -2.80518
N          5.03521        3.09816       -2.20197
N          3.47626        1.47463       -2.82179
C          3.07291        0.26149       -3.54861
C          1.64322       -0.15576       -3.14809
C          0.59893        0.85229       -3.53533
C         -0.12663        0.91481       -4.65516
Br         0.05881       -0.33554       -6.06112
Br         0.25044        2.22160       -2.22176
C          3.40564       -2.09510       -1.26453
H          9.65685       -3.38910       -1.28086
H          9.13442       -1.72336       -0.95627
H          8.75076       -2.50588       -2.52452
H          7.65019       -3.39192        0.22383
H          7.24133       -4.13109       -1.35969
H          4.84022       -0.48096       -1.31207
H          3.97751       -1.64078       -4.03279
H          5.30211        0.03377       -5.09900
H          6.33407       -0.71731       -3.87393
H          6.93606        2.85160       -3.96497
H          7.48008        1.24294       -4.48956
H          7.94461        0.70806       -2.01125
H          9.73278        1.60021       -3.80414
H         10.12828        1.52468       -2.07834
H          9.60785        3.95654       -3.60136
H         10.64227        3.68674       -2.35300
H          8.28729        3.39328       -1.56984
H          5.99128        3.17610       -1.79966
H          4.28419        3.60385       -1.74665
H          2.75938        1.99561       -2.31586
H          3.02140        0.50276       -4.62537
H          1.57039       -0.34517       -2.07157
H          1.42072       -1.09840       -3.66966
H         -0.88075        1.67370       -4.84994
H          2.94887       -2.83075       -1.94008
H          2.62377       -1.43543       -0.87375
H          3.81639       -2.63671       -0.40304
