72

C          3.37272        0.44061       -3.29998
C          3.70560        0.35255       -1.80857
C          4.44410        1.58580       -1.27616
C          4.81011        1.48275        0.20787
C          5.61074        2.67973        0.73121
C          6.04767        2.51571        2.19111
C          6.92509        3.66774        2.69773
C          7.46303        3.40102        4.09261
O          8.35120        4.47872        4.46885
C          9.16125        4.17882        5.59775
N         10.24658        5.13936        5.67079
C          9.94338        6.40104        6.09806
N         10.86275        7.22927        6.59746
C         12.14073        6.89590        7.23077
C         13.31696        7.56780        6.51581
O         13.04683        8.98253        6.48618
C         13.18250        9.60683        5.19308
C         11.96750        9.34211        4.33338
C         10.75088        9.98031        4.63435
C          9.58673        9.66211        3.93119
C          9.62188        8.69772        2.91664
C         10.82916        8.07378        2.59472
C         11.99522        8.40066        3.29595
C         14.63441        7.29010        7.22774
N          8.66309        6.80106        6.02779
C         11.36067        4.95288        4.71178
C         12.27177        3.76988        5.00842
C         13.35201        3.65942        3.93046
O         14.19787        2.59219        4.35552
O         12.86587        3.94570        6.29003
H          2.85386       -0.46197       -3.64964
H          4.28377        0.55476       -3.90625
H          2.72296        1.30150       -3.51574
H          4.32141       -0.54351       -1.62146
H          2.77793        0.20604       -1.23006
H          3.82531        2.48492       -1.44294
H          5.36454        1.73964       -1.86704
H          5.39534        0.56042        0.37131
H          3.89028        1.36517        0.80703
H          5.01546        3.60294        0.62215
H          6.50641        2.81986        0.10051
H          6.60379        1.56712        2.29062
H          5.15723        2.41410        2.83455
H          6.35555        4.61142        2.69543
H          7.78014        3.81130        2.01695
H          8.03258        2.45321        4.11085
H          6.64748        3.31664        4.83393
H          9.59646        3.17065        5.50270
H          8.58514        4.22485        6.53826
H         10.66193        8.22725        6.53427
H         12.26657        5.80782        7.25170
H         12.09836        7.26542        8.26799
H         13.36773        7.18448        5.48196
H         14.10495        9.26442        4.69393
H         13.29027       10.67908        5.40604
H         10.72613       10.74457        5.41540
H          8.65523       10.18419        4.15677
H          8.71529        8.45446        2.36113
H         10.86626        7.34356        1.78494
H         12.94225        7.92800        3.02511
H         14.60531        7.67164        8.25750
H         15.46122        7.78746        6.70533
H         14.84276        6.21153        7.25667
H          8.05583        6.34947        5.34276
H          8.34954        7.63248        6.51350
H         11.94059        5.88138        4.69276
H         10.91698        4.82885        3.71013
H         11.69211        2.82516        4.99419
H         13.91096        4.61172        3.86734
H         12.89287        3.44831        2.94777
H         14.99668        2.57144        3.80770
H         13.58725        3.29156        6.34197
