85

C          0.73469       -0.62218        0.17849
C          2.26307       -0.55329        0.12267
C          2.88783        0.10753        1.35637
C          4.41746        0.18256        1.31010
C          5.03853        0.82965        2.55190
C          6.56855        0.90493        2.51238
C          7.18020        1.52811        3.77077
C          8.71042        1.60862        3.75035
C          9.29679        2.21554        5.02876
C         10.82573        2.31619        5.03849
C         11.37375        2.93025        6.33075
C         12.89986        3.05957        6.37266
C         13.40492        3.73521        7.65188
C         14.92641        3.90709        7.71075
C         15.39274        4.67823        8.95060
C         16.90920        4.89522        9.00449
C         17.33733        5.78959       10.17507
C         18.86026        5.95662       10.35720
P         19.72624        6.57207        8.88372
C         18.97864        8.10701        8.23845
C         18.82197        9.16076        9.31803
C         19.37837       10.51358        9.15462
O         20.03606        9.54166        9.99476
C         21.50860        6.74667        9.22080
C         22.24493        6.75202        7.88091
O         21.67299        7.03506        6.83943
O         23.51691        6.40417        8.02539
C         24.34503        6.36149        6.80001
C         25.01938        7.69712        6.53858
C         25.93675        7.62634        5.30807
C         26.64479        8.95270        5.02283
H          0.31847       -1.10495       -0.71648
H          0.29190        0.38266        0.24985
H          0.39251       -1.19456        1.05381
H          2.57472       -0.00227       -0.78099
H          2.67398       -1.57112        0.01053
H          2.57708       -0.44535        2.26077
H          2.47554        1.12584        1.47162
H          4.72844        0.74358        0.41104
H          4.82849       -0.83504        1.18617
H          4.72593        0.26697        3.44938
H          4.62707        1.84684        2.67784
H          6.88363        1.48331        1.62589
H          6.98000       -0.11015        2.37105
H          6.86040        0.94752        4.65420
H          6.76577        2.54194        3.91329
H          9.03500        2.20337        2.87823
H          9.12860        0.59789        3.59857
H          8.96847        1.61674        5.89664
H          8.86810        3.22203        5.18097
H         11.15965        2.91925        4.17566
H         11.26212        1.31243        4.89265
H         11.03682        2.32614        7.19139
H         10.92436        3.92923        6.47254
H         13.24245        3.63735        5.49597
H         13.35890        2.06027        6.27485
H         13.06913        3.15622        8.52964
H         12.92728        4.72655        7.74577
H         15.26726        4.43818        6.80399
H         15.41357        2.91701        7.68372
H         15.07028        4.14795        9.86262
H         14.88662        5.65922        8.97631
H         17.22678        5.33996        8.04271
H         17.42370        3.92075        9.07102
H         16.95251        5.37162       11.11795
H         16.86491        6.78048       10.07882
H         19.34187        4.99536       10.60106
H         19.09775        6.65275       11.17704
H         19.61456        5.59942        7.86923
H         18.00294        7.83390        7.80803
H         19.63535        8.43068        7.41865
H         17.96140        9.03500        9.98442
H         18.91904       11.34769        9.69055
H         19.90958       10.76509        8.23223
H         21.84712        5.93688        9.88170
H         21.66009        7.70473        9.74309
H         23.69864        6.05528        5.96720
H         25.07177        5.56926        7.01713
H         25.60284        7.98893        7.42631
H         24.25153        8.47191        6.38323
H         25.34365        7.32700        4.42820
H         26.68673        6.83192        5.45627
H         25.92286        9.76053        4.83519
H         27.29013        8.87217        4.13862
H         27.27692        9.25908        5.86871
