57

O          3.78373       -5.60236        4.48483
C          5.17041       -5.95578        4.43696
C          5.76297       -5.28139        3.19688
N          5.49510       -3.84225        3.07574
C          6.01133       -3.01349        4.15644
C          6.03371       -1.52891        3.76433
C          6.84810       -1.32768        2.46991
C          6.57689       -0.06085        1.73262
N          6.86542        1.17024        2.19320
N          6.56486        2.13774        1.28851
C          6.06990        1.48138        0.27090
N          6.04401        0.12372        0.48620
C          5.52931       -0.85916       -0.57057
C          6.74891       -1.30141       -1.45324
C          7.95031       -1.86900       -0.68394
C          6.33168       -2.28365       -2.56311
C          4.76543       -2.03787        0.09862
O          3.69088       -1.60776        0.90829
C          4.50111       -0.08894       -1.42094
C          7.45394        1.59876        3.46889
C          8.90110        1.09462        3.69483
O          9.63606        1.08396        2.47474
C          9.57009        1.90959        4.79637
O          4.71231       -1.01770        3.49860
H          3.34620       -6.13364        5.16661
H          5.30970       -7.04728        4.35107
H          5.69078       -5.62335        5.35513
H          5.34551       -5.75864        2.29821
H          6.85204       -5.44754        3.18117
H          4.48242       -3.72192        3.00733
H          7.04458       -3.32567        4.38323
H          5.44645       -3.10037        5.10804
H          6.47795       -0.95865        4.59921
H          6.64204       -2.18752        1.82800
H          7.92087       -1.36819        2.70500
H          5.71910        1.95908       -0.63382
H          7.08860       -0.37404       -1.94841
H          7.70161       -2.79499       -0.14570
H          8.38363       -1.15132        0.02571
H          8.74619       -2.12044       -1.39663
H          6.04463       -3.26356       -2.15691
H          7.18351       -2.44983       -3.23481
H          5.50389       -1.91056       -3.17785
H          5.42716       -2.73402        0.63540
H          4.32813       -2.61060       -0.73080
H          4.00902       -1.43233        1.81837
H          4.96545        0.65614       -2.07998
H          3.74136        0.38549       -0.78889
H          3.97688       -0.80138       -2.06611
H          6.79260        1.29037        4.29067
H          7.43323        2.69405        3.41072
H          8.87089        0.03891        4.00786
H          9.98285        1.97571        2.30429
H          9.68195        2.96240        4.49248
H         10.56455        1.50170        5.01470
H          8.98160        1.89166        5.72495
H          4.14553       -1.18129        4.27107
