79

O          1.08579       -4.13819       -2.15940
C          2.39996       -4.64572       -2.28889
C          2.64202       -4.68849       -3.80208
S          4.35555       -5.18085       -4.16050
C          4.29713       -5.42467       -5.98234
C          5.67741       -5.68051       -6.59661
C          6.46047       -6.86752       -6.01834
C          5.83685       -8.24867       -6.29919
N          6.48781       -9.30394       -5.55190
C          6.13844       -9.69533       -4.27287
C          7.08441      -10.59754       -3.82665
C          8.04702      -10.75024       -4.86382
C          7.66085       -9.93786       -5.91183
C          5.28001       -3.62044       -3.97075
C          6.73841       -3.88940       -3.58748
O          7.37042       -2.63395       -3.69369
C          8.80515       -2.69733       -3.78697
C          9.24254       -3.04706       -5.20839
O         10.65586       -3.05650       -5.20208
C         11.30026       -3.42581       -6.36700
C         10.64848       -3.80050       -7.54730
C         11.40565       -4.17250       -8.66001
C         12.80803       -4.17055       -8.64689
C         13.42972       -3.78805       -7.44642
C         12.69658       -3.41975       -6.32087
C         13.59625       -4.58614       -9.89688
C         13.24179       -3.70340      -11.13976
C         13.42685       -2.15713      -11.22017
C         14.88887       -1.70278      -11.04097
C         12.98219       -1.76949      -12.64846
C         12.54098       -1.38833      -10.21960
C         15.11482       -4.63177       -9.64004
C         13.17455       -6.03383      -10.26426
H          0.82616       -4.14884       -1.22422
H          2.50514       -5.66014       -1.86450
H          3.14252       -3.99136       -1.79259
H          2.44222       -3.71361       -4.26913
H          2.00596       -5.45083       -4.27404
H          3.80864       -4.53678       -6.40726
H          3.62295       -6.28636       -6.09585
H          6.28282       -4.76314       -6.53823
H          5.49397       -5.83465       -7.67308
H          6.57733       -6.76520       -4.92648
H          7.48013       -6.84632       -6.42842
H          5.89506       -8.47969       -7.37374
H          4.76889       -8.26837       -6.03035
H          5.23171       -9.32286       -3.80572
H          7.07161      -11.11123       -2.87111
H          8.91526      -11.40057       -4.85409
H          8.10937       -9.76915       -6.88580
H          4.76427       -3.04846       -3.18750
H          5.21601       -3.06179       -4.91477
H          7.18687       -4.63712       -4.26445
H          6.80059       -4.29586       -2.55929
H          9.21711       -3.42025       -3.06254
H          9.16388       -1.69727       -3.51408
H          8.84517       -2.29631       -5.91608
H          8.85166       -4.04054       -5.50786
H          9.56130       -3.79606       -7.62233
H         10.87146       -4.44964       -9.56993
H         14.51627       -3.76770       -7.37742
H         13.19522       -3.12548       -5.39703
H         12.18187       -3.89782      -11.37848
H         13.80798       -4.13600      -11.98286
H         15.57764       -2.28596      -11.66952
H         15.22390       -1.78540       -9.99905
H         14.99113       -0.64619      -11.32908
H         13.60678       -2.26065      -13.40933
H         13.06068       -0.68321      -12.80003
H         11.93717       -2.06006      -12.83451
H         12.83997       -1.56080       -9.17820
H         11.48289       -1.67356      -10.31546
H         12.61342       -0.30738      -10.41247
H         15.52866       -3.68051       -9.28875
H         15.63867       -4.89015      -10.57037
H         15.36358       -5.40304       -8.89687
H         12.10910       -6.09833      -10.52463
H         13.35928       -6.71430       -9.42119
H         13.75119       -6.39390      -11.12846
