40

C          4.48870        0.06619       -2.70098
C          4.36926       -0.30847       -1.55379
P          4.16506       -0.83498        0.09138
C          5.24752       -2.27937        0.35205
C          5.08737       -2.74934        1.81061
O          3.74720       -2.33452        2.11893
C          3.35632       -2.33340        3.52035
C          2.31221       -1.26631        3.70100
C          1.05186       -1.39843        3.09462
C          0.09790       -0.38803        3.22498
C          0.38832        0.75856        3.97328
C          1.63554        0.89299        4.58659
C          2.59506       -0.11333        4.44439
C          5.32118       -4.24488        1.97735
C          4.44817        0.60839        1.15626
C          3.22174        1.55632        1.14653
C          3.52351        2.82955        1.85650
C          3.43169        4.06247        1.34190
F          3.05712        4.30070        0.08859
F          3.68561        5.17117        2.00740
F          3.92837        2.70493        3.14793
H          4.59441        0.39825       -3.71710
H          2.81340       -1.22002        0.16627
H          6.27784       -2.00679        0.08700
H          4.90278       -3.03793       -0.36842
H          5.79096       -2.18489        2.45302
H          4.24040       -2.12396        4.14541
H          2.97209       -3.33324        3.77896
H          0.81305       -2.30332        2.53210
H         -0.88175       -0.50205        2.75969
H         -0.36390        1.53981        4.08786
H          1.86467        1.78174        5.17447
H          3.56868       -0.00392        4.92709
H          4.59164       -4.81749        1.38814
H          5.23008       -4.54014        3.03039
H          6.33257       -4.51684        1.64541
H          5.35057        1.10811        0.77319
H          4.64814        0.24460        2.17200
H          2.37250        1.04949        1.63395
H          2.91931        1.80173        0.11887
