81

C         14.23772      -10.49032       -7.04839
C         13.59618      -10.51704       -5.65967
C         13.78935       -9.21336       -4.87840
C         13.16052       -9.23741       -3.48235
C         13.36258       -7.94272       -2.68908
C         12.75249       -7.98732       -1.28495
C         12.98016       -6.71221       -0.46731
C         12.42313       -6.79731        0.95704
C         12.69838       -5.55372        1.80843
C         12.27840       -5.71883        3.27180
C         12.62700       -4.51757        4.15764
C         12.43831       -4.78190        5.64969
O         13.30191       -5.83153        6.14691
C         14.63094       -5.42364        6.41839
C         15.42326       -6.71591        6.65574
O         16.80546       -6.50210        6.85752
C         17.52759       -6.52505        5.63020
N         17.43806       -7.86065        5.02740
C         16.16801       -8.29237        4.86246
N         15.83356       -9.34689        4.09438
C         16.37856       -9.70948        2.77505
C         15.31374      -10.65636        2.17759
O         14.25801      -10.88866        2.74261
O         15.70843      -11.13555        1.00233
C         14.78614      -12.04427        0.29266
C         15.17261      -13.48710        0.54370
C         16.63044       -8.50648        1.85676
N         15.20337       -7.61064        5.50321
C         18.60381       -8.76013        4.96918
C         19.39004       -8.88209        6.27866
C         20.27410      -10.14250        6.22112
O         19.49934      -11.33290        6.11178
O         20.19589       -7.70725        6.41227
H         14.08206      -11.43736       -7.58274
H         15.32256      -10.31907       -6.98290
H         13.81353       -9.68591       -7.66705
H         14.01539      -11.35445       -5.07565
H         12.51723      -10.72517       -5.75471
H         13.36203       -8.37586       -5.45684
H         14.86922       -8.99866       -4.78996
H         13.58309      -10.08369       -2.90970
H         12.08009       -9.44552       -3.57189
H         12.92743       -7.09822       -3.25056
H         14.44332       -7.72772       -2.61114
H         13.17406       -8.84891       -0.73465
H         11.66912       -8.18325       -1.36194
H         12.52685       -5.85315       -0.99055
H         14.06346       -6.49747       -0.42231
H         12.85624       -7.68228        1.46008
H         11.33634       -6.98321        0.91764
H         12.18636       -4.68114        1.36913
H         13.77767       -5.31789        1.76898
H         12.76607       -6.62362        3.67678
H         11.19483       -5.91610        3.33195
H         11.99800       -3.65333        3.88872
H         13.66492       -4.19549        3.96408
H         11.41988       -5.14100        5.85582
H         12.60176       -3.86618        6.24287
H         14.69160       -4.79559        7.32540
H         15.07794       -4.86499        5.57488
H         15.05270       -7.21249        7.56727
H         18.57212       -6.30854        5.86650
H         17.11923       -5.78877        4.91835
H         14.88826       -9.73687        4.20610
H         17.30456      -10.29739        2.87972
H         14.90424      -11.76172       -0.76032
H         13.76521      -11.82173        0.62512
H         16.20863      -13.68061        0.23772
H         14.51624      -14.14049       -0.04763
H         15.05234      -13.75597        1.60092
H         15.70476       -7.93716        1.69447
H         16.99636       -8.85979        0.88618
H         17.38740       -7.83644        2.28243
H         14.23739       -7.64617        5.17852
H         19.29357       -8.42356        4.17889
H         18.23901       -9.76330        4.72092
H         18.67998       -8.97526        7.12271
H         20.93308      -10.15825        7.10623
H         20.92249      -10.09118        5.33237
H         19.28525      -11.65636        6.99996
H         20.68284       -7.75001        7.25171
