34

C          0.85302       -0.34658       -0.07405
O          2.25082       -0.09874        0.16831
C          2.62280       -0.27854        1.49449
N          4.13086       -0.33529        1.47983
C          4.78212        0.91286        0.88474
C          4.28785        2.24301        1.44322
O          4.40143        2.16546        2.87179
C          5.11320        3.38207        0.84847
C          4.71246       -0.75300        2.82377
C          4.51790       -2.23652        3.16270
C          4.99125       -3.27215        2.13762
C          6.47028       -3.16571        1.63925
Br         7.76282       -3.14577        3.09409
F          6.75725       -4.14894        0.77953
F          6.58765       -1.98060        0.94008
Br         4.65701       -5.06008        2.82145
F          4.21712       -3.10968        0.97113
H          0.70413       -0.20132       -1.14798
H          0.22252        0.36210        0.48498
H          0.58828       -1.38055        0.19972
H          2.26307       -1.23883        1.90252
H          2.32489        0.54725        2.16417
H          4.35103       -1.09398        0.81433
H          4.58527        0.87177       -0.19231
H          5.85881        0.78961        1.05892
H          3.22852        2.38347        1.15734
H          4.25707        3.05003        3.24458
H          6.17410        3.28031        1.11510
H          4.75071        4.34605        1.23118
H          5.02257        3.41365       -0.24610
H          4.24468       -0.12247        3.58724
H          5.77384       -0.48761        2.79006
H          3.46314       -2.47105        3.36147
H          5.05021       -2.41226        4.10680
