48

C          0.77081       -1.86013        0.01377
C          2.17458       -1.26405        0.07840
S          2.93947       -1.81975        1.65577
C          4.48496       -1.09251        1.53413
N          5.01213       -0.33904        0.57379
N          6.27513       -0.02089        0.98891
C          6.45088       -0.58931        2.15841
O          5.35649       -1.28963        2.57684
C          7.61002       -0.53880        2.99671
N          7.72218       -1.11976        4.20993
N          8.91730       -0.82725        4.67706
N          9.54690       -0.08154        3.79950
N          8.77223        0.10145        2.69506
C          9.06716        1.03238        1.61759
C          8.72893        2.49180        2.08469
O          8.56753        2.67914        3.28135
C          8.64270        3.53383        1.05061
C          8.37397        4.85306        1.47303
C          8.26996        5.87452        0.53662
C          8.43744        5.59492       -0.82610
C          8.70691        4.29073       -1.25408
C          8.80815        3.26072       -0.32219
C         10.91059        0.42556        3.97547
C         11.47084        0.00407        5.33854
O         12.77558        0.54299        5.33494
C         13.48710        0.29367        6.53759
C         14.87385        0.91626        6.39353
F         15.56300        0.37306        5.36311
F         14.80480        2.25113        6.18462
F         15.57616        0.70183        7.53092
H          0.29126       -1.53565       -0.91882
H          0.14307       -1.52000        0.84844
H          0.79092       -2.95826        0.01659
H          2.16106       -0.16738        0.08433
H          2.81386       -1.60994       -0.74257
H          8.43896        0.72701        0.77106
H         10.12567        0.94778        1.33668
H          8.24583        5.04846        2.53754
H          8.05676        6.89220        0.86369
H          8.35418        6.39839       -1.55884
H          8.83303        4.07777       -2.31532
H          9.00817        2.24969       -0.67880
H         10.88006        1.52133        3.90346
H         11.54144        0.01965        3.17046
H         11.48109       -1.09659        5.43901
H         10.85473        0.41875        6.15714
H         13.61321       -0.78751        6.72255
H         12.99154        0.75634        7.40897
