36

C          1.51743        1.19392        1.44007
C          2.93431        0.89475        0.94416
C          3.33960        1.77138       -0.24673
C          4.74933        1.44340       -0.75172
N          5.19232        2.35247       -1.82365
C          4.71879        2.33872       -3.07536
N          4.20154        1.25295       -3.70571
I          5.20544       -0.56316       -3.78951
N          4.71676        3.56777       -3.61879
C          5.11141        4.57559       -2.61702
C          5.78169        3.69758       -1.53087
C          7.33018        3.68291       -1.59766
C          7.91378        4.95901       -0.97914
O          7.40358        6.10623       -1.66614
C          7.96036        2.46244       -0.91487
H          1.26546        0.57269        2.30899
H          0.76900        0.99274        0.66008
H          1.41100        2.24583        1.74241
H          3.01123       -0.16774        0.65941
H          3.65467        1.04375        1.76577
H          3.29282        2.83407        0.04598
H          2.61942        1.64018       -1.07101
H          4.80346        0.40883       -1.11985
H          5.48663        1.52425        0.05664
H          3.76845        1.45290       -4.60523
H          4.70887        3.73966       -4.61814
H          4.22343        5.10810       -2.24630
H          5.80982        5.30058       -3.04397
H          5.45139        3.99904       -0.52659
H          7.61403        3.66693       -2.66569
H          9.01343        4.91251       -1.05362
H          7.65089        4.99791        0.09600
H          7.84213        6.89866       -1.32041
H          7.73050        2.42858        0.16065
H          9.05284        2.49859       -1.01415
H          7.62477        1.52246       -1.37030
