92

C          4.61251       -2.97804        0.08746
C          5.36715       -1.98001       -0.79430
C          5.22540       -0.52789       -0.32338
C          5.97107        0.48061       -1.20333
C          5.80202        1.93163       -0.74185
C          6.54789        2.94430       -1.61802
C          6.33178        4.39078       -1.16135
C          7.08171        5.39233       -2.04740
N          6.96774        6.79300       -1.58341
C          6.02623        7.65358       -2.00813
S          6.04747        9.29967       -1.55705
S          4.76512        6.89993       -3.01042
C          4.07909        8.17335       -4.13836
C          2.68366        8.70344       -3.76737
C          2.75544        9.91209       -2.81684
C          1.93140        9.87863       -1.49236
C          2.58690       10.93911       -0.55605
N          3.53081       10.12488        0.28558
C          2.67167        8.94774        0.66095
C          2.12311        8.52900       -0.70340
C          3.38555        7.94810        1.59179
C          4.40085        6.94963        0.98031
F          5.00829        6.26258        1.98125
F          3.71137        6.06351        0.19890
F          4.07268        8.70171        2.52787
F          2.41787        7.24803        2.24180
C          0.46977       10.20725       -1.77993
C          0.02026       11.53500       -1.82483
C         -1.31309       11.79895       -2.14610
N         -2.21218       10.84724       -2.43070
C         -1.77792        9.58066       -2.40649
C         -0.46622        9.21364       -2.09261
C          7.99908        7.19627       -0.60371
C          9.29049        7.69421       -1.26245
C         10.36360        8.02170       -0.21896
C         11.66936        8.52900       -0.83996
C         12.75366        8.84070        0.19660
C         14.05102        9.37676       -0.41670
C         15.14008        9.67933        0.61867
C         16.42290       10.24198        0.00182
H          4.73530       -4.00790       -0.27477
H          3.53421       -2.76009        0.10608
H          4.97367       -2.94746        1.12622
H          5.00650       -2.05953       -1.83381
H          6.43657       -2.24867       -0.82501
H          5.58839       -0.44473        0.71638
H          4.15414       -0.26058       -0.28981
H          5.61940        0.38655       -2.24579
H          7.04510        0.22548       -1.22299
H          6.14899        2.02795        0.30173
H          4.72774        2.18668       -0.72748
H          6.21657        2.83751       -2.66550
H          7.62665        2.71071       -1.61445
H          6.66067        4.50446       -0.11497
H          5.25637        4.62341       -1.17594
H          6.72006        5.34342       -3.08329
H          8.15629        5.15987       -2.06087
H          4.04680        7.63033       -5.09283
H          4.82101        8.97770       -4.23190
H          2.07775        7.88200       -3.35730
H          2.17867        8.99279       -4.70011
H          2.46321       10.82573       -3.35458
H          3.81021       10.04563       -2.53581
H          1.86726       11.40880        0.12672
H          3.15116       11.71359       -1.08750
H          3.89271       10.62924        1.10409
H          4.36813        9.80192       -0.31435
H          1.86334        9.35708        1.28826
H          1.18930        7.97369       -0.57833
H          2.83253        7.87286       -1.22460
H          5.16493        7.45962        0.37210
H          0.68590       12.37658       -1.62277
H         -1.67623       12.82994       -2.17362
H         -2.51757        8.81206       -2.64657
H         -0.20106        8.15588       -2.10158
H          8.19847        6.31362        0.02183
H          7.57498        7.98430        0.03207
H          9.06123        8.58672       -1.86492
H          9.67114        6.92876       -1.95841
H         10.57205        7.12412        0.38911
H          9.97359        8.78019        0.48192
H         11.46157        9.43385       -1.43704
H         12.05054        7.77715       -1.55270
H         12.97358        7.92934        0.77979
H         12.36351        9.57581        0.92261
H         13.83131       10.29268       -0.99323
H         14.43895        8.64653       -1.14874
H         15.37251        8.75786        1.17908
H         14.74541       10.39273        1.36229
H         16.86053        9.53863       -0.72230
H         17.18319       10.44325        0.76855
H         16.23018       11.18565       -0.52992
