31

C          1.06712       -0.13096       -0.37398
C          2.58169       -0.03448       -0.36860
C          3.18618        1.19673       -1.06534
C          3.10117        2.46591       -0.20365
C          3.68440        3.70852       -0.88248
C          4.61384        0.74502       -1.40989
C          4.42678       -0.67629       -1.91196
N          3.31381       -1.26000       -1.04049
C          2.46170       -2.28793       -1.77276
C          3.27801       -3.48673       -2.15592
C          3.13334       -4.67310       -1.55825
H          0.67560        0.75403        0.14476
H          0.69049       -1.00483        0.17255
H          0.64579       -0.12623       -1.38775
H          2.94690       -0.06460        0.67035
H          2.63336        1.37016       -2.00747
H          3.61998        2.28203        0.75315
H          2.04684        2.65673        0.05019
H          4.76321        3.61132       -1.06728
H          3.54217        4.59342       -0.24958
H          3.19248        3.90856       -1.84546
H          5.25468        0.77106       -0.51357
H          5.09180        1.36861       -2.17431
H          5.30925       -1.32172       -1.84211
H          4.05695       -0.69204       -2.94580
H          3.76352       -1.78141       -0.27876
H          2.03410       -1.77555       -2.64542
H          1.64949       -2.57684       -1.09599
H          3.99201       -3.37076       -2.97563
H          2.40731       -4.83253       -0.75771
H          3.72298       -5.53742       -1.86318
