57

C          8.59420        4.08459       -0.03111
C          7.65485        2.88207        0.08446
C          7.89724        2.05276        1.35067
C          6.91740        0.88453        1.50784
C          7.19459        0.04998        2.76663
C          6.14730       -1.04147        2.96069
N          6.43447       -1.90629        4.17278
C          6.10894       -1.21145        5.47880
C          6.62992       -2.00427        6.69324
N          6.23968       -3.43343        6.60899
C          6.38349       -4.09233        5.31256
C          5.81547       -3.30986        4.11023
C          4.29352       -3.28172        4.03721
C          8.13947       -1.73640        7.05658
C          8.30476       -0.21312        7.44976
C          7.28348        0.31873        8.47323
C          9.72246        0.14587        7.93663
C          8.51075       -2.64627        8.26362
O          8.62222       -4.02515        7.94137
C          9.11260       -2.04349        5.89550
H          8.39733        4.65665       -0.94705
H          9.64767        3.77010       -0.05743
H          8.47324        4.77024        0.82024
H          7.76947        2.23479       -0.80106
H          6.60774        3.22880        0.07347
H          7.82186        2.70887        2.23598
H          8.93202        1.66781        1.34434
H          6.96635        0.23462        0.61766
H          5.88639        1.27603        1.54694
H          7.22040        0.72129        3.63996
H          8.19587       -0.40868        2.68855
H          6.12487       -1.71905        2.09495
H          5.14125       -0.62126        3.09183
H          7.45660       -2.05695        4.18335
H          5.01785       -1.10387        5.50839
H          6.54942       -0.21031        5.42882
H          6.06132       -1.61990        7.54964
H          5.29702       -3.55612        6.97558
H          5.88154       -5.06795        5.36002
H          7.44773       -4.30603        5.13160
H          6.22015       -3.74376        3.18272
H          3.82480       -2.92525        4.96356
H          3.94510       -4.30899        3.86946
H          3.91744       -2.67682        3.20288
H          8.15880        0.35980        6.51421
H          7.30199       -0.25375        9.41127
H          6.24761        0.33005        8.10618
H          7.53070        1.35669        8.73081
H          9.92688       -0.25615        8.93821
H          9.81593        1.23753        8.00490
H         10.51510       -0.20320        7.26424
H          7.78376       -2.49132        9.08266
H          9.49597       -2.34884        8.64498
H          7.72072       -4.29396        7.67643
H          9.03306       -1.30492        5.07830
H          8.99793       -3.05977        5.50024
H         10.15323       -1.99092        6.23818
