78

C          1.54982      -11.30221        7.62432
C          3.05679      -11.05420        7.72841
C          3.46142       -9.62419        7.35337
C          4.96731       -9.36091        7.45528
C          5.36823       -7.94115        7.04069
C          6.87259       -7.67132        7.14833
C          7.27761       -6.27526        6.66057
C          8.78459       -6.01451        6.77601
C          9.19472       -4.67439        6.19061
O         10.61885       -4.52836        6.34747
C         11.16641       -3.38361        5.73451
C         12.69098       -3.51494        5.84466
C         13.19419       -4.60530        4.89039
C         14.68186       -4.90726        5.03979
C         15.00382       -5.24768        6.49560
C         14.57543       -4.17413        7.50076
N         13.06966       -3.87528        7.28040
C         12.50350       -2.96536        8.32942
C         12.21110       -3.86760        9.54702
O         12.22976       -5.09563        9.35988
N         11.94939       -3.28910       10.73385
C         11.82506       -1.83669       10.93606
C         12.96139       -1.20853       11.74401
C         11.70541       -4.17870       11.89060
C         12.98735       -4.74871       12.50046
C         15.41670       -2.86668        7.61005
C         15.73602       -2.61282        9.10708
O         15.98436       -1.24527        9.40235
C         16.71595       -2.81754        6.79416
H          1.29158      -12.33516        7.89499
H          1.18555      -11.12668        6.60105
H          0.98751      -10.63377        8.29342
H          3.59366      -11.76495        7.07741
H          3.39659      -11.27079        8.75548
H          2.92100       -8.91118        8.00097
H          3.12299       -9.41031        6.32398
H          5.50811      -10.08923        6.82544
H          5.30280       -9.55036        8.49025
H          4.81993       -7.20967        7.65995
H          5.04016       -7.76174        6.00169
H          7.42190       -8.43048        6.56437
H          7.19632       -7.80356        8.19552
H          6.72335       -5.51080        7.23212
H          6.96228       -6.15646        5.60932
H          9.34140       -6.80855        6.25212
H          9.09930       -6.05519        7.83153
H          8.68146       -3.83683        6.70133
H          8.94265       -4.61747        5.11512
H         10.78302       -2.44908        6.19115
H         10.91191       -3.32852        4.65871
H         13.16780       -2.54741        5.62337
H         12.96556       -4.27131        3.86840
H         12.59904       -5.51584        5.06510
H         15.27587       -4.04937        4.69270
H         14.95591       -5.75249        4.39403
H         16.07632       -5.43601        6.63596
H         14.49619       -6.18797        6.76772
H         14.56848       -4.65630        8.48974
H         12.58881       -4.77691        7.53616
H         11.56754       -2.53809        7.95514
H         13.19593       -2.14530        8.53347
H         10.86079       -1.66481       11.43969
H         11.74183       -1.34878        9.95670
H         13.02841       -1.63929       12.75108
H         12.77387       -0.13244       11.85836
H         13.93384       -1.32876       11.24827
H         11.05330       -4.99410       11.54974
H         11.14825       -3.58693       12.62929
H         13.52101       -5.37637       11.77598
H         12.73467       -5.37750       13.36464
H         13.66199       -3.95494       12.84550
H         14.79980       -2.01519        7.27610
H         16.57934       -3.25765        9.41472
H         14.88118       -2.90164        9.73781
H         16.91797       -1.03807        9.24713
H         17.39787       -3.63937        7.05380
H         17.24027       -1.87581        7.00675
H         16.54915       -2.83956        5.71148
