48

C          4.87875       -8.20070       -4.77203
C          4.52850       -7.14400       -3.72089
C          5.07536       -5.75371       -4.06561
C          4.68685       -4.65059       -3.07381
N          5.22006       -4.86451       -1.72109
C          6.38396       -4.32800       -1.30158
O          7.12553       -3.61680       -1.97692
C          6.72983       -4.61702        0.18397
N          8.17443       -4.51501        0.36508
C          8.87563       -3.37772        0.17007
N         10.16333       -3.69009        0.25273
N         10.33018       -5.02273        0.48131
C          9.11118       -5.52131        0.53523
C          8.83872       -6.97010        0.74721
C          8.14175       -7.26279        2.08344
O          7.29313       -6.54373        2.57478
O          8.57506       -8.42120        2.58889
C          7.93938       -8.85214        3.82725
C         11.32689       -2.80190        0.13600
C         12.04134       -2.58672        1.47177
C         13.36149       -1.82917        1.25613
N         14.23503       -2.57420        0.34448
H          4.47629       -9.18518       -4.49941
H          5.96755       -8.30538       -4.88774
H          4.46676       -7.93412       -5.75573
H          4.92039       -7.46813       -2.74064
H          3.43232       -7.08583       -3.60812
H          4.69997       -5.44620       -5.05512
H          6.17389       -5.78487       -4.15141
H          3.59329       -4.57414       -2.98378
H          5.06882       -3.67951       -3.41291
H          4.71019       -5.47736       -1.09319
H          6.40442       -5.59685        0.54641
H          6.24266       -3.86447        0.81963
H          8.45786       -2.39789       -0.02656
H          9.79184       -7.50647        0.68257
H          8.19116       -7.36337       -0.05445
H          8.41195       -9.80705        4.07017
H          6.86114       -8.97591        3.67167
H          8.11748       -8.11266        4.61667
H         10.95837       -1.85811       -0.28837
H         12.02035       -3.25912       -0.58279
H         12.25009       -3.56794        1.92687
H         11.39878       -2.03049        2.17101
H         13.80457       -1.62255        2.24747
H         13.15312       -0.84928        0.79878
H         14.69982       -3.34409        0.82748
H         14.97001       -1.97671       -0.03100
