93

C          0.89132        0.12909       -0.28440
C          2.40450       -0.07689       -0.39363
C          2.98103       -0.96147        0.71838
C          4.49466       -1.17427        0.61236
C          5.07324       -2.06666        1.71601
C          6.58273       -2.29661        1.58657
C          7.16906       -3.20484        2.67295
C          8.66858       -3.46849        2.49954
C          9.26624       -4.39540        3.56437
C         10.73880       -4.73528        3.31121
C         11.35603       -5.66071        4.36699
C         12.78206       -6.09941        4.01783
C         13.42277       -7.02599        5.06094
C         14.80145       -7.53713        4.60953
C         15.63410       -8.48240        5.51195
C         16.05528       -7.83973        6.83704
N         14.94945       -7.85278        7.88028
C         15.35540       -7.09802        9.11860
C         14.17841       -6.82870       10.05125
O         14.68434       -5.89379       11.00775
C         13.75260       -5.51357       11.97066
O         12.62549       -5.94807       11.95787
C         14.36262       -4.53953       12.94473
C         13.39725       -4.07913       14.04028
C         14.05120       -3.08540       15.00319
C         14.49558       -9.27452        8.14851
C         14.00023       -9.91471        6.85860
C         15.05853       -9.91278        5.73427
C         16.16722      -10.96391        6.01587
C         16.69128      -11.80026        4.82660
C         17.48829      -11.00516        3.76277
C         16.66720      -10.39297        2.62279
C         17.54821      -12.94957        5.38077
H          0.50944        0.75722       -1.10091
H          0.62185        0.61783        0.66380
H          0.35354       -0.83006       -0.32461
H          2.91259        0.90218       -0.37847
H          2.64529       -0.52490       -1.37260
H          2.47232       -1.94177        0.70278
H          2.74177       -0.51516        1.70006
H          5.00322       -0.19405        0.63137
H          4.73132       -1.61576       -0.37210
H          4.55456       -3.04160        1.70493
H          4.85280       -1.61993        2.70161
H          7.10388       -1.32327        1.60332
H          6.79729       -2.73459        0.59570
H          6.62927       -4.16823        2.67192
H          6.98461       -2.75768        3.66572
H          9.21355       -2.50826        2.50316
H          8.84244       -3.90782        1.50120
H          8.68095       -5.33122        3.60182
H          9.15733       -3.93123        4.56057
H         11.32838       -3.80362        3.25379
H         10.83115       -5.21052        2.31878
H         10.71984       -6.55605        4.48282
H         11.34968       -5.15380        5.34869
H         13.42348       -5.21302        3.87568
H         12.77146       -6.62294        3.04663
H         12.73421       -7.86459        5.25157
H         13.49196       -6.44984        6.00901
H         15.43330       -6.66173        4.38193
H         14.66415       -8.05207        3.64577
H         16.58764       -8.61025        4.97520
H         16.34056       -6.78812        6.69823
H         16.90042       -8.36782        7.30040
H         14.14713       -7.35520        7.45773
H         15.78291       -6.14284        8.78551
H         16.14702       -7.67624        9.61382
H         13.81730       -7.73299       10.56328
H         13.32299       -6.39333        9.50447
H         14.74645       -3.68391       12.36314
H         15.25967       -5.01694       13.37498
H         13.03295       -4.95813       14.59219
H         12.50948       -3.62738       13.57344
H         14.92403       -3.52543       15.50785
H         13.34339       -2.77103       15.78096
H         14.39138       -2.17943       14.48022
H         13.70664       -9.23243        8.90841
H         15.36488       -9.79497        8.57604
H         13.07967       -9.40373        6.54000
H         13.70435      -10.94724        7.09277
H         14.53767      -10.20400        4.80943
H         15.77899      -11.68186        6.75662
H         17.03627      -10.48714        6.50473
H         15.81243      -12.24764        4.32613
H         18.22296      -11.68932        3.31129
H         18.09427      -10.22937        4.26402
H         16.11850      -11.17280        2.07565
H         17.31900       -9.88135        1.90151
H         15.92585       -9.65923        2.96514
H         18.45687      -12.56632        5.87153
H         17.86934      -13.62286        4.57491
H         16.99762      -13.54943        6.11949
