60

C          1.13727        2.53803       -1.18140
C          2.29254        1.63319       -0.74880
C          2.77177        0.68382       -1.85453
C          3.97387       -0.16140       -1.42236
C          4.45027       -1.13098       -2.49092
O          5.61227       -1.80343       -1.98376
C          6.13461       -2.79070       -2.83970
C          7.33592       -3.37858       -2.10257
C          8.01807       -4.53588       -2.83761
C          9.23105       -5.08246       -2.18036
N          9.45384       -6.30233       -2.53867
C          8.44792       -6.82322       -3.51076
C          7.26233       -5.85389       -3.24067
C          6.23393       -6.42101       -2.21706
C          6.68196       -6.68845       -0.78556
C          6.39155       -5.70497        0.18010
C          6.78778       -5.82247        1.51056
C          7.47849       -6.96523        1.91577
C          7.70824       -7.98338        0.99265
C          7.31077       -7.88217       -0.35282
C          7.51969       -9.10305       -1.22352
C          9.04934       -6.81606       -4.92839
C          8.12176       -7.48479       -5.95620
C          8.75269       -7.48483       -7.34288
Br         7.55218       -8.29754       -8.65832
H          0.81467        3.19333       -0.36111
H          0.26342        1.95008       -1.49903
H          1.42738        3.18176       -2.02493
H          1.98796        1.03789        0.12863
H          3.14126        2.25240       -0.41292
H          3.03569        1.27194       -2.75088
H          1.93808        0.02588       -2.15654
H          3.72393       -0.73497       -0.51479
H          4.81513        0.49763       -1.15318
H          4.70789       -0.59883       -3.42746
H          3.66613       -1.87526       -2.73333
H          6.44458       -2.36122       -3.81673
H          5.37096       -3.56693       -3.05723
H          7.02001       -3.68626       -1.10071
H          8.07408       -2.57364       -1.96259
H          8.41526       -4.10667       -3.78564
H          9.90908       -4.55724       -1.50362
H         10.26439       -6.84357       -2.23383
H          8.20784       -7.85442       -3.22891
H          6.71694       -5.68063       -4.17751
H          5.83088       -7.33815       -2.67475
H          5.38819       -5.72025       -2.18115
H          5.79655       -4.83867       -0.11475
H          6.53521       -5.03971        2.22584
H          7.79638       -7.08394        2.95175
H          8.18476       -8.90748        1.32651
H          7.33028      -10.01323       -0.63966
H          8.55580       -9.19071       -1.59054
H          6.84936       -9.13499       -2.09212
H         10.01034       -7.35604       -4.90112
H          9.28141       -5.78415       -5.23967
H          7.15519       -6.96057       -6.00137
H          7.90601       -8.52032       -5.64983
H          9.67818       -8.07079       -7.37991
H          8.95208       -6.47102       -7.70859
