46

C          0.82796        0.61135        0.89470
C          2.20808        0.08463        0.49405
C          2.91870       -0.64537        1.63996
C          4.30948       -1.18108        1.22717
C          4.99925       -1.86891        2.36615
C          5.63028       -1.15130        3.40675
C          6.19225       -1.83498        4.48234
C          6.77334       -1.14869        5.67824
C          5.64222       -0.60645        6.59446
N          4.85571        0.41081        5.90508
C          6.10689       -3.23278        4.44110
N          5.52557       -3.83417        3.39405
N          4.96521       -3.20672        2.36079
C          5.42969       -5.33414        3.29783
O          4.22218       -5.80294        3.81482
C          4.28753       -6.37657        5.10512
O          4.64239       -5.37310        6.03220
C          5.03658       -5.86461        7.31679
C          5.71414       -4.72459        8.05816
O          6.92311       -4.28726        7.41472
H          0.34359        1.12724        0.05522
H          0.89559        1.32693        1.72745
H          0.16237       -0.20556        1.20945
H          2.83939        0.91998        0.14799
H          2.10974       -0.59880       -0.36542
H          2.30085       -1.49043        1.98596
H          3.02680        0.03348        2.50328
H          4.93633       -0.34472        0.87935
H          4.20671       -1.89206        0.39638
H          5.67590       -0.06450        3.35887
H          7.40818       -0.30816        5.35953
H          7.39526       -1.84446        6.25626
H          6.11420       -0.25860        7.53001
H          4.97393       -1.43779        6.86362
H          5.31003        1.32391        5.93561
H          3.93007        0.51745        6.31591
H          6.47742       -3.87368        5.24413
H          6.30956       -5.74884        3.81197
H          5.45357       -5.53999        2.22159
H          5.03440       -7.19768        5.13197
H          3.27721       -6.77663        5.28840
H          5.72943       -6.72049        7.20257
H          4.15674       -6.21170        7.88956
H          5.90059       -5.02033        9.10248
H          5.04406       -3.85269        8.07101
H          7.65410       -4.84799        7.71763
