54

C          5.01273       -2.80410       -0.48090
C          5.99999       -1.74924        0.02442
C          6.16588       -0.58066       -0.95985
C          7.18340        0.42494       -0.45371
O          7.40694        1.48875       -1.46763
C          6.69444        2.58530       -1.33395
O          5.91353        2.91254       -0.47958
N          6.97741        3.51319       -2.44377
C          6.45785        4.76074       -2.35481
N          6.83121        5.41636       -3.45331
C          7.59481        4.59920       -4.26822
C          7.70048        3.38133       -3.64616
C          8.45166        2.18301       -4.13779
C          9.98372        2.35474       -4.02672
C         10.50091        2.59401       -2.60758
N         11.92743        2.85364       -2.64222
C         12.51898        3.15006       -1.33369
C         13.97391        3.54630       -1.46090
C         14.79322        3.04038       -2.47930
C         16.13161        3.41985       -2.59966
C         16.67662        4.32364       -1.68534
C         15.88478        4.83502       -0.65753
C         14.54585        4.44626       -0.54162
O         13.74034        4.92210        0.46803
N          6.62829        6.81595       -3.70074
O          6.13146        6.82793       -5.03104
O          5.56163        7.15147       -2.83314
H          4.91283       -3.62477        0.24078
H          5.34403       -3.23871       -1.43490
H          4.01249       -2.37550       -0.63740
H          6.98161       -2.21815        0.20287
H          5.66259       -1.36106        0.99895
H          5.19613       -0.07909       -1.10936
H          6.49094       -0.96288       -1.94085
H          8.18124       -0.01433       -0.33432
H          6.87494        0.91066        0.47998
H          5.85357        5.13365       -1.53964
H          7.97751        4.93936       -5.22153
H          8.18557        2.04181       -5.19535
H          8.12213        1.28652       -3.60457
H         10.29063        3.19975       -4.66664
H         10.46573        1.46075       -4.44636
H         10.32199        1.70095       -1.98460
H          9.92163        3.42152       -2.12721
H         12.12597        3.63107       -3.27657
H         12.42679        2.24363       -0.70731
H         11.97316        3.94923       -0.79352
H         14.35958        2.33314       -3.18730
H         16.74544        3.01056       -3.40159
H         17.71907        4.63263       -1.76631
H         16.30527        5.54017        0.06450
H         14.26235        5.52753        1.01911
H          6.52856        7.64042       -5.39922
H          5.83883        8.01768       -2.47824
