113

C          5.15374       -0.95054       -2.38057
C          6.42577       -0.57743       -1.61538
C          6.24430        0.62623       -0.68335
C          7.50724        0.98412        0.10674
C          7.33115        2.18818        1.03805
C          8.57045        2.48364        1.88974
C          8.40222        3.69545        2.81381
C          9.59600        3.90457        3.75259
C          9.41508        5.10826        4.68227
C         10.58054        5.24487        5.70174
C         10.28905        6.30410        6.71553
C         10.76557        7.60772        6.57926
C         10.41558        8.57323        7.51610
N          9.60361        8.24084        8.53311
N          9.11698        7.01661        8.71142
C          9.44808        6.05789        7.84521
C          8.91542        4.70121        8.20339
C          9.86873        3.97050        9.19957
C          9.42788        2.57508        9.45463
C          8.87629        2.10137       10.57832
F          8.66696        2.85392       11.65580
F          8.48706        0.85400       10.75806
F          9.58120        1.71937        8.40747
C          9.21226        9.20134        9.59491
C          9.82140        8.78356       10.93876
C          9.25692        9.60209       12.10366
S          9.80087        8.91395       13.68062
C         11.37686        9.76603       13.95189
S         11.84025       11.10016       13.06960
N         12.07551        9.21776       14.97218
C         11.77679        7.86665       15.48334
C         12.26314        6.76051       14.53135
C         11.65959        5.38469       14.81667
C         12.09419        4.35370       13.76943
C         11.49340        2.95853       13.95556
C         11.90456        1.98486       12.84702
C         11.30460        0.58269       12.98944
C         11.67450       -0.35045       11.83434
C         13.24842        9.90466       15.53803
C         14.60114        9.37878       15.04434
C         15.76879       10.13251       15.68836
C         17.13787        9.57111       15.29221
C         18.31081       10.26756       15.98848
C         19.67686        9.68681       15.61209
C         20.85219       10.36111       16.32777
C         22.21114        9.76722       15.95031
H          5.31812       -1.81624       -3.03653
H          4.80661       -0.11806       -3.01066
H          4.33433       -1.20688       -1.69246
H          7.23803       -0.36281       -2.33040
H          6.76720       -1.44383       -1.02364
H          5.42008        0.41882        0.02218
H          5.92022        1.50039       -1.27557
H          8.33546        1.18358       -0.59559
H          7.82161        0.10833        0.70178
H          6.46869        2.01085        1.70446
H          7.07264        3.07992        0.44038
H          9.44240        2.64273        1.23209
H          8.80925        1.59416        2.49876
H          7.48656        3.56777        3.41764
H          8.24243        4.60326        2.20673
H         10.52068        4.02756        3.16386
H          9.74040        2.99620        4.36281
H          8.45985        5.01174        5.22489
H          9.34047        6.04050        4.09945
H         11.51003        5.48633        5.16693
H         10.73651        4.27505        6.19691
H         11.41596        7.88645        5.75005
H         10.75886        9.60578        7.47996
H          8.78211        4.08552        7.30622
H          7.93456        4.82420        8.67955
H          9.90715        4.52354       10.14759
H         10.89397        3.94695        8.79412
H          8.11432        9.18234        9.63450
H          9.54152       10.19815        9.27594
H         10.91496        8.90568       10.90773
H          9.59995        7.71892       11.09851
H          8.15806        9.56086       12.13860
H          9.58899       10.65261       12.07307
H         10.69485        7.77305       15.66457
H         12.25848        7.78080       16.46673
H         13.36161        6.70546       14.56457
H         11.99950        7.05593       13.50344
H         10.55820        5.46342       14.82094
H         11.94726        5.03934       15.82428
H         13.19570        4.27890       13.76723
H         11.81958        4.73259       12.76695
H         10.39234        3.03250       13.98843
H         11.79870        2.55226       14.93517
H         13.00573        1.90725       12.81779
H         11.61308        2.40807       11.86747
H         10.20718        0.65963       13.07004
H         11.64041        0.14131       13.94265
H         11.33161        0.04980       10.86749
H         11.22323       -1.34420       11.95750
H         12.76394       -0.48728       11.76434
H         13.17782        9.79659       16.63249
H         13.14599       10.96877       15.29136
H         14.64208        9.47147       13.94747
H         14.69695        8.30645       15.27923
H         15.66650       10.09121       16.78726
H         15.71297       11.20084       15.41849
H         17.26234        9.64568       14.19762
H         17.16773        8.49209       15.52644
H         18.17513       10.19897       17.08220
H         18.29180       11.34542       15.74998
H         19.82105        9.76724       14.51989
H         19.68755        8.60536       15.83741
H         20.70489       10.28254       17.41832
H         20.84432       11.44063       16.10069
H         22.26315        8.69715       16.20122
H         23.03203       10.27117       16.47866
H         22.40352        9.86241       14.87115
