110

C          1.16987       17.98107      -10.71526
C          2.69187       17.86856      -10.59377
C          3.15007       17.17683       -9.30508
C          4.67173       17.05173       -9.18015
C          5.12990       16.33213       -7.90760
C          6.65138       16.19229       -7.79656
C          7.11373       15.42440       -6.55407
C          8.63510       15.27075       -6.46259
C          9.10679       14.47066       -5.24418
C         10.62897       14.31591       -5.17048
C         11.11591       13.50335       -3.96632
C         12.64095       13.37903       -3.89781
C         13.15320       12.58258       -2.69334
C         14.68191       12.53497       -2.61415
C         15.23208       11.80631       -1.38389
C         16.75897       11.88131       -1.28670
C         17.34066       11.25583       -0.01322
C         18.86722       11.38046        0.11289
C         19.35747       12.83030        0.22280
C         20.87987       12.94729        0.37922
C         21.46043       14.37527        0.27245
C         20.85662       15.29493        1.33454
N         21.39049       16.69976        1.24113
C         21.27617       17.35079       -0.13750
C         21.90139       16.41764       -1.18976
C         21.30654       15.00283       -1.12460
C         21.86394       17.00405       -2.61283
C         22.49604       18.39039       -2.74808
O         23.75657       18.36414       -2.09845
C         24.64529       19.42269       -2.46444
C         26.06007       18.99231       -2.13789
O         26.42244       17.96562       -3.04173
C         27.65824       17.33129       -2.73108
C         27.86036       16.22925       -3.76217
O         29.01642       15.49804       -3.39764
C         29.30871       14.45531       -4.31725
C         19.82122       17.79884       -0.34614
C         19.37940       18.89089        0.63896
N         19.46747       18.41582        2.04783
H          0.87455       18.48024      -11.64850
H          0.74415       18.55856       -9.88097
H          0.69415       16.98896      -10.70465
H          3.14174       18.87481      -10.64497
H          3.09128       17.31675      -11.46171
H          2.69656       16.17097       -9.25247
H          2.75479       17.72936       -8.43412
H          5.12548       18.05815       -9.21539
H          5.06544       16.51450      -10.06127
H          4.66962       15.32881       -7.87263
H          4.74519       16.86963       -7.02286
H          7.11234       17.19601       -7.79951
H          7.03512       15.68388       -8.69886
H          6.64616       14.42397       -6.55084
H          6.74093       15.93297       -5.64741
H          9.10274       16.27135       -6.44565
H          9.00567       14.78275       -7.38147
H          8.63833       13.47086       -5.26081
H          8.74318       14.95755       -4.32198
H         11.09508       15.31728       -5.14544
H         10.99117       13.84072       -6.09932
H         10.66560       12.49582       -3.99725
H         10.74570       13.96982       -3.03612
H         13.08396       14.39116       -3.87468
H         13.01127       12.91231       -4.82762
H         12.75113       11.55538       -2.73011
H         12.75487       13.02875       -1.76477
H         15.07018       13.57006       -2.61791
H         15.08234       12.06357       -3.52880
H         14.90949       10.75119       -1.39745
H         14.78897       12.24513       -0.47227
H         17.05035       12.94441       -1.34990
H         17.20997       11.39472       -2.16963
H         17.06812       10.18897        0.02374
H         16.86487       11.71656        0.87093
H         19.34921       10.90241       -0.75752
H         19.20667       10.81560        0.99665
H         18.84522       13.30386        1.07922
H         19.03449       13.38496       -0.67181
H         21.37115       12.33607       -0.39511
H         21.18596       12.50761        1.34318
H         22.54421       14.29820        0.48065
H         21.06732       14.94245        2.35383
H         19.76623       15.36696        1.22830
H         22.37460       16.71142        1.53173
H         20.79731       17.34419        1.87596
H         21.90508       18.25202       -0.05861
H         22.97072       16.34555       -0.92114
H         21.81896       14.36598       -1.86065
H         20.24569       15.02020       -1.42429
H         20.83226       17.03975       -2.99882
H         22.41315       16.30758       -3.26353
H         21.84822       19.18285       -2.31426
H         22.61509       18.63463       -3.81907
H         24.39422       20.35260       -1.91929
H         24.56532       19.62336       -3.54775
H         26.10991       18.63003       -1.09087
H         26.73858       19.86449       -2.22322
H         27.62920       16.89239       -1.71503
H         28.49691       18.05180       -2.76540
H         27.96929       16.67065       -4.77225
H         26.96432       15.57620       -3.77959
H         30.21188       13.95122       -3.95448
H         29.49694       14.85069       -5.33213
H         28.48221       13.72227       -4.37306
H         19.12707       16.94432       -0.30874
H         19.73295       18.20338       -1.36333
H         18.36747       19.23929        0.38067
H         20.05065       19.75711        0.54392
H         18.62398       17.89709        2.30253
H         19.51553       19.20622        2.69259
