56

C          0.09700        4.90565        1.02820
C          1.57900        5.25271        0.86785
C          2.51294        4.14931        1.38014
C          3.99992        4.51100        1.26730
C          4.89878        3.41301        1.80846
O          6.27419        3.84316        1.72638
C          7.17183        2.94413        2.34003
C          8.57513        3.53130        2.23396
S          8.57308        5.33196        2.58685
C          7.69611        5.44255        4.19123
C          7.81288        6.84144        4.82766
P          8.90354        6.76677        6.30149
O         10.08722        5.90167        6.08122
O          9.15072        8.32146        6.56232
C         10.10464        8.74668        7.60328
C         10.27614       10.24460        7.49403
O          8.01990        6.19272        7.50483
C          6.89279        6.91433        8.09643
C          6.75244        6.47486        9.53828
C         10.32729        5.64777        3.04438
C         11.28312        5.18814        1.95499
O         10.79709        5.68886        0.71384
H         -0.54533        5.70779        0.64116
H         -0.16632        4.75052        2.08510
H         -0.16016        3.98430        0.48505
H          1.79856        6.19167        1.40386
H          1.80067        5.45134       -0.19386
H          2.31516        3.21776        0.82249
H          2.26742        3.92910        2.43414
H          4.20032        5.44242        1.82327
H          4.26487        4.70850        0.21645
H          4.77804        2.47665        1.23338
H          4.65447        3.19014        2.86579
H          7.17863        1.95647        1.83916
H          6.89831        2.76574        3.39867
H          8.95573        3.48431        1.20462
H          9.27472        3.03339        2.91835
H          8.08338        4.65127        4.84736
H          6.66122        5.21373        3.90695
H          6.81573        7.20549        5.11075
H          8.21867        7.59487        4.13773
H         11.04811        8.20731        7.43966
H          9.69644        8.45240        8.58224
H         10.67921       10.52690        6.51305
H         10.98067       10.58641        8.26464
H          9.32319       10.76751        7.64699
H          5.99141        6.66507        7.51356
H          7.07215        7.99662        8.01547
H          6.59399        5.39101        9.60525
H          5.88984        6.97888        9.99555
H          7.64908        6.73175       10.11701
H         10.53044        5.20047        4.02731
H         10.36535        6.74100        3.14741
H         11.37255        4.08707        1.94420
H         12.27712        5.59574        2.20997
H         11.44926        5.51632        0.01673
