32

C          5.37175       -1.78589       -0.49841
C          4.21328       -1.87053        0.49661
C          2.89109       -1.25284       -0.01258
C          2.34078       -1.99628       -1.19090
C          2.06721       -3.36964       -1.13700
C          1.58397       -4.03160       -2.25779
Br         1.20783       -5.86063       -2.24574
C          1.39547       -3.27488       -3.43192
N          1.61191       -1.97115       -3.47277
N          2.06598       -1.36267       -2.37799
N          2.33282        0.01697       -2.50720
C          1.20027        0.83287       -2.02583
C          2.77058        0.38910       -3.86021
C          1.81351       -1.20129        1.12577
O          2.14193       -0.23682        2.10003
H          6.28734       -2.20141       -0.05943
H          5.58059       -0.74387       -0.77720
H          5.16923       -2.34987       -1.42084
H          4.48148       -1.31999        1.41125
H          4.04614       -2.91591        0.80600
H          3.08519       -0.21648       -0.31848
H          2.26872       -3.90872       -0.21243
H          1.04851       -3.72230       -4.36444
H          0.95273        0.57828       -0.98952
H          0.30856        0.70804       -2.66398
H          1.52139        1.88029       -2.05307
H          3.59408       -0.26198       -4.17470
H          3.14581        1.41656       -3.78066
H          1.96370        0.35100       -4.60749
H          1.68904       -2.20746        1.56415
H          0.84033       -0.90307        0.70710
H          2.70802       -0.63238        2.78035
