72

C          3.12872       -1.52826       -0.99110
O          2.51970       -0.24051       -0.76420
C          3.21241        0.89390       -1.14961
C          4.43812        0.86887       -1.81768
C          5.05583        2.07342       -2.16962
C          4.45218        3.29756       -1.88177
C          3.22344        3.31499       -1.22171
C          2.59616        2.12604       -0.82898
C          1.34095        2.19369       -0.00163
N          0.26866        1.29018       -0.63021
C         -1.03042        1.23818        0.13219
C         -0.75066        0.94040        1.60526
O          0.19440        1.88467        2.10743
C          1.47853        1.78728        1.48566
C          2.42486        2.70315        2.26586
C          3.88662        2.24293        2.20450
C          4.85528        2.93505        3.16587
C          5.57976        4.24700        2.67901
C          4.77223        5.56835        2.38217
C          3.91469        6.21779        3.52960
F          4.62060        6.32958        4.66053
F          3.52324        7.43921        3.12917
F          2.80736        5.48074        3.77003
F          5.68356        6.48907        1.99256
F          3.92823        5.33510        1.32515
F          6.52968        4.55896        3.59145
F          6.19894        3.93556        1.49708
F          4.26775        3.19429        4.37623
F          5.88935        2.06121        3.40172
C         -2.02104        1.05059        2.44196
C         -1.73897        0.71961        3.91221
C         -2.95182        0.73105        4.84732
C         -3.27753        2.06519        5.62613
C         -3.65617        3.39314        4.86099
C         -4.93933        3.50147        3.94627
C         -6.39135        3.23415        4.51243
C         -6.90873        4.11081        5.71417
F         -6.73592        5.41963        5.45954
F         -8.21917        3.86662        5.87586
F         -6.26876        3.79548        6.85207
F         -7.22504        3.46685        3.46389
F         -6.49432        1.92978        4.86310
F         -4.91813        4.76238        3.44340
F         -4.77993        2.63655        2.89989
F         -3.74302        4.36846        5.79599
F         -2.60017        3.69721        4.03803
F         -4.26444        1.80090        6.51402
F         -2.14517        2.38254        6.32473
F         -4.08617        0.31205        4.20177
F         -2.71140       -0.17403        5.85215
H          4.09023       -1.59921       -0.46387
H          3.26816       -1.71535       -2.06519
H          2.42934       -2.26147       -0.57752
H          4.92094       -0.07475       -2.06420
H          6.01776        2.04410       -2.68137
H          4.93405        4.23232       -2.16399
H          2.75066        4.26835       -0.98046
H          0.92632        3.21196       -0.02834
H          0.72336        0.35500       -0.70319
H          0.10730        1.60784       -1.59451
H         -1.66283        0.47090       -0.33378
H         -1.51020        2.22042        0.02459
H         -0.32247       -0.08142        1.69572
H          1.83077        0.73862        1.54629
H          2.07821        2.67412        3.30753
H          2.30376        3.73847        1.92458
H          4.31022        2.32527        1.19567
H          3.94138        1.18042        2.48675
H         -2.77698        0.36044        2.03980
H         -2.41748        2.06755        2.33142
H         -0.97504        1.39088        4.32395
H         -1.34094       -0.30369        3.98868
