42

N          6.33703        0.05291        2.29441
C          6.76723        0.13165        0.87461
C          5.59743        0.33988       -0.09820
C          4.52304        1.38435        0.30706
C          5.04088        2.67718        0.84944
N          5.68820        2.70515        2.07928
C          6.05062        3.96099        2.37916
N          5.63799        4.73795        1.36448
C          4.99934        3.97705        0.39466
C          4.41338        4.57361       -0.84314
C          3.20373        5.47387       -0.58054
O          3.64089        6.54801        0.25066
C          2.61966        7.46999        0.56942
C          3.12362        8.35570        1.70242
F          4.28648        8.97944        1.38858
F          2.20651        9.29910        1.99913
F          3.35819        7.63255        2.83773
C          6.76404        4.45899        3.59217
C          6.29451        5.86614        4.01591
N          6.49706        6.83584        2.92347
H          7.11783       -0.26032        2.87444
H          5.60655       -0.65400        2.40957
H          7.32297       -0.76532        0.55701
H          7.46969        0.97680        0.79890
H          5.07613       -0.61665       -0.25760
H          6.03052        0.61769       -1.07002
H          3.85111        0.94506        1.06198
H          3.88913        1.58922       -0.56573
H          5.93081        1.78206        2.54439
H          5.76854        5.76694        1.44924
H          4.10660        3.76539       -1.52076
H          5.18015        5.15846       -1.37516
H          2.39580        4.91023       -0.07632
H          2.81169        5.85765       -1.53978
H          1.70142        6.96827        0.92377
H          2.36267        8.11853       -0.28731
H          7.84996        4.47711        3.39378
H          6.61088        3.75014        4.41769
H          6.81314        6.13667        4.95072
H          5.21865        5.83753        4.23971
H          7.47754        7.11649        2.86128
H          5.95818        7.68477        3.09541
