69

C          6.97903        0.21083        4.17680
C          6.60684       -0.19286        2.74740
C          6.97569        0.87936        1.71421
C          6.53672        0.52112        0.30323
O          6.96776        1.56155       -0.58498
C          6.48228        1.41679       -1.90512
C          7.03364        2.58589       -2.74965
C          6.03552        3.04501       -3.82339
C          5.91807        2.00912       -4.94149
C          7.28127        1.74631       -5.55642
N          8.31447        1.34019       -4.52717
C          8.43779        2.33192       -3.35736
C          9.43004        1.88521       -2.26471
C         10.93383        1.94298       -2.54870
O         11.20759        3.05919       -3.39822
C         12.58739        3.29592       -3.61168
C         12.73415        4.01909       -4.94687
F         12.29266        3.23007       -5.97812
F         12.02276        5.16370       -4.99283
F         14.03063        4.30817       -5.18137
C          9.60631        0.98705       -5.20326
C          9.88783       -0.47511       -4.78988
O          9.00143       -1.04566       -4.12284
N         11.03309       -1.05835       -5.17742
C         11.27092       -2.47818       -4.83917
C         12.25722       -2.68270       -3.68246
C         11.79087       -2.12485       -2.33257
C         12.79150       -2.39123       -1.20559
C         12.05805       -0.38994       -5.97544
H          6.72484       -0.58036        4.89424
H          6.44607        1.12211        4.48477
H          8.05657        0.41076        4.26991
H          5.52448       -0.39679        2.69500
H          7.10762       -1.14053        2.48820
H          8.06606        1.04322        1.71781
H          6.51457        1.84125        1.99070
H          5.43514        0.42178        0.24978
H          6.97230       -0.44618       -0.01878
H          5.37473        1.44770       -1.91250
H          6.76738        0.42292       -2.31596
H          7.17515        3.41373       -2.03737
H          6.36664        4.00705       -4.24710
H          5.05660        3.22734       -3.36001
H          5.24990        2.35978       -5.74057
H          5.48344        1.06801       -4.56746
H          7.67261        2.64733       -6.05272
H          7.24987        0.93055       -6.29105
H          8.06272        0.38548       -4.12416
H          8.79906        3.26412       -3.81778
H          9.18385        0.87680       -1.90260
H          9.21670        2.55337       -1.42034
H         11.30755        1.01616       -3.02306
H         11.46892        2.04567       -1.58882
H         13.16389        2.35654       -3.67997
H         13.02406        3.92490       -2.81743
H         10.37933        1.70826       -4.91836
H          9.46695        1.05616       -6.28999
H         11.64646       -2.96554       -5.75127
H         10.29505       -2.91466       -4.59481
H         13.24272       -2.26003       -3.94296
H         12.41977       -3.76900       -3.59515
H         10.80996       -2.55737       -2.07912
H         11.62513       -1.03778       -2.42044
H         12.94323       -3.46911       -1.05217
H         12.44363       -1.96848       -0.25366
H         13.77443       -1.94904       -1.42646
H         11.86568        0.68269       -6.06482
H         12.10288       -0.82556       -6.98462
H         13.04065       -0.51686       -5.50119
