63

C          9.11935       -5.23289        1.26621
C          9.34226       -3.98102        0.44233
O          8.92234       -2.78507        1.18183
P          7.47692       -2.12749        0.92661
O          6.52973       -2.95653        0.15069
O          7.00990       -1.71265        2.42790
C          6.54598       -2.78509        3.32862
C          5.03366       -2.88286        3.32239
C          7.80756       -0.48299        0.22104
C          8.85430        0.36279        0.96052
C          8.82184        1.85536        0.55259
C          9.22317        2.74510        1.72765
C          8.28664        2.61996        2.96519
C          6.80520        2.28725        2.70975
C          6.14837        1.64862        3.94191
C          4.67285        1.31895        3.70519
O          4.07878        0.74235        4.85416
O          6.86134        0.47270        4.34218
N          8.44648        3.96810        3.53395
C          8.79864        4.84016        2.56833
N          8.69867        6.16662        2.75084
N          9.22583        4.23116        1.44904
Si        10.04895        4.93985       -0.02749
C          8.88443        4.77264       -1.47914
C         10.42557        6.76157        0.26189
C         11.66628        4.01693       -0.21288
H          9.53363       -6.10164        0.73520
H          8.04755       -5.41504        1.42151
H          9.61950       -5.15908        2.24100
H          8.79089       -4.02571       -0.50713
H         10.40738       -3.81661        0.23290
H          6.94178       -2.51297        4.31631
H          7.01690       -3.73019        3.02391
H          4.56714       -1.93409        3.62000
H          4.71588       -3.65215        4.04054
H          4.66309       -3.16290        2.32876
H          6.82914        0.02353        0.19176
H          8.09026       -0.66120       -0.82765
H          9.85740       -0.05102        0.78800
H          8.68585        0.26549        2.04204
H          7.81891        2.14208        0.20385
H          9.49748        2.01445       -0.29825
H         10.24643        2.47929        2.04684
H          8.69429        1.88015        3.66602
H          6.71361        1.56846        1.88483
H          6.25741        3.18977        2.39402
H          6.20989        2.32130        4.81666
H          4.59330        0.64627        2.82490
H          4.10298        2.23278        3.47647
H          4.71064        0.08710        5.19929
H          6.85995       -0.16529        3.59440
H          7.90660        4.26331        4.34192
H          8.42921        6.53472        3.65399
H          9.13071        6.80607        2.09496
H          7.92069        5.25523       -1.26516
H          8.69016        3.73131       -1.76210
H          9.32282        5.27823       -2.35206
H          9.53993        7.41502        0.25942
H         11.02633        7.08242       -0.60326
H         11.04216        6.95758        1.15039
H         11.54509        2.94540       -0.41346
H         12.29001        4.13136        0.68452
H         12.22151        4.44651       -1.05927
