64

C          2.07170       -0.17796       -0.80619
C          3.49816       -0.63282       -1.01969
O          3.69563       -1.86310       -0.26955
C          4.98852       -2.34802       -0.34955
N          5.09348       -3.53969        0.56803
C          4.60145       -3.23682        1.97373
C          5.05426       -4.34069        2.94199
C          4.61475       -5.73590        2.42603
C          5.05838       -5.97146        0.97657
C          4.56930       -4.88204        0.00917
C          3.04224       -4.90806       -0.22215
C          2.54007       -4.47579       -1.60950
C          2.60190       -5.50654       -2.72033
Br         4.46048       -5.84420       -3.33423
Br         0.60244       -4.06131       -1.43096
C          6.52455       -4.25695        3.21196
N          7.17043       -4.43182        4.31652
N          8.52695       -4.23828        4.04089
C          8.61527       -3.95901        2.77056
O          7.37113       -3.95168        2.15016
S         10.05615       -3.64603        1.86229
C          9.36264       -3.04050        0.27575
C         10.51426       -2.59901       -0.62894
C         10.00174       -2.07093       -1.97516
C         11.12689       -1.60877       -2.90770
C         10.62289       -1.08172       -4.25479
C         11.74597       -0.59590       -5.17853
C         11.23941       -0.06784       -6.52261
H          1.89151        0.74212       -1.37733
H          1.88012        0.03512        0.25342
H          1.36030       -0.94036       -1.14805
H          4.22511        0.11734       -0.66042
H          3.70680       -0.82948       -2.08670
H          5.73990       -1.61408        0.00469
H          5.27208       -2.69793       -1.36140
H          6.11319       -3.69054        0.67989
H          3.51159       -3.15173        1.93383
H          5.00930       -2.25585        2.24910
H          4.56584       -4.15029        3.90847
H          3.52009       -5.81143        2.51449
H          5.03684       -6.50909        3.08028
H          4.68522       -6.93645        0.60852
H          6.15710       -6.03567        0.92291
H          5.09305       -4.99311       -0.94949
H          2.52928       -4.29807        0.52986
H          2.70444       -5.93989       -0.04488
H          2.97139       -3.52256       -1.92948
H          2.08324       -5.16150       -3.61761
H          2.21132       -6.48176       -2.41107
H          8.69089       -2.19549        0.48881
H          8.79154       -3.85453       -0.19575
H         11.19788       -3.44656       -0.79724
H         11.10084       -1.81688       -0.12091
H          9.30868       -1.22897       -1.79736
H          9.41122       -2.85788       -2.47736
H         11.82440       -2.44649       -3.07860
H         11.71471       -0.82278       -2.40351
H          9.91148       -0.25426       -4.08168
H         10.04745       -1.87389       -4.76652
H         12.45674       -1.42187       -5.34947
H         12.31955        0.19329       -4.66387
H         10.69928       -0.84679       -7.08144
H         12.06791        0.27751       -7.15516
H         10.55095        0.77974       -6.38670
