67

C          2.34651       -3.29202       -2.03171
C          3.47942       -2.31806       -1.68993
C          3.13483       -0.90222       -2.11252
O          4.25174       -0.03149       -1.72994
C          4.15162        1.25463       -2.10919
O          3.24975        1.73304       -2.76356
C          5.35092        2.06673       -1.59473
C          5.89098        2.97309       -2.66884
C          5.56784        4.31882       -2.68981
C          5.99839        5.21856       -3.70577
C          5.61358        6.66986       -3.63154
C          6.41182        7.44340       -2.55880
C          6.03272        8.92608       -2.51693
C          6.73292        9.67987       -1.37529
N          6.43123       11.10218       -1.37549
C          5.25208       11.66920       -0.93447
C          5.29256       13.02594       -1.21222
C          6.53308       13.28921       -1.84856
C          7.21330       12.08397       -1.94182
C          6.78442        4.72682       -4.73558
C          7.13218        3.35782       -4.77047
C          6.68825        2.45600       -3.73534
C          7.04736        1.09579       -3.84578
C          7.81998        0.63459       -4.89782
N          8.21750        1.53230       -5.86540
C          7.89134        2.82261       -5.82586
C          8.17643       -0.81322       -4.93646
O          7.53394       -1.62807       -4.30431
C          9.46389       -1.32069       -5.67914
C          9.22403       -2.14277       -7.00175
C          8.44235       -1.42711       -8.16055
C          9.21346       -0.25635       -8.84740
O          9.26089        0.84539       -8.33723
O          9.79517       -0.53135      -10.00296
F          8.15019       -2.37705       -9.09775
F          7.27047       -0.93648       -7.66336
F         10.44058       -2.49490       -7.50665
F          8.53789       -3.25965       -6.68072
F         10.31012       -0.27717       -5.96691
F         10.11050       -2.15166       -4.83033
H          2.60764       -4.31242       -1.72442
H          2.14183       -3.31230       -3.11180
H          1.41230       -3.02049       -1.51964
H          4.41111       -2.62707       -2.18910
H          3.67846       -2.33320       -0.60749
H          2.22791       -0.52721       -1.61488
H          2.98562       -0.81361       -3.19883
H          6.11688        1.39146       -1.19315
H          4.98351        2.67197       -0.75392
H          4.93362        4.71055       -1.89139
H          4.53807        6.74716       -3.40454
H          5.76589        7.14194       -4.61349
H          7.49010        7.33299       -2.76112
H          6.23654        6.98358       -1.57131
H          4.94239        9.03111       -2.39809
H          6.28881        9.41103       -3.47224
H          7.82467        9.57021       -1.45316
H          6.43771        9.25792       -0.40162
H          4.48975       11.06485       -0.45280
H          4.51833       13.74595       -0.96789
H          6.90270       14.25183       -2.18611
H          8.19265       11.84940       -2.34698
H          7.12684        5.38839       -5.53353
H          6.73243        0.35828       -3.10816
H          8.72091        1.20179       -6.71805
H          8.23617        3.42898       -6.66385
H          9.60956       -1.45232      -10.27927
