59

C          0.47123       -0.56465        1.76799
O          1.86971       -0.51860        1.47806
C          2.37657       -1.75881        1.02610
C          3.87144       -1.55666        0.75460
C          4.58946       -2.78704        0.19447
C          4.20404       -3.07310       -1.25938
C          5.09237       -4.15212       -1.88764
C          4.66222       -4.50938       -3.31531
C          5.16909       -5.81585       -3.93400
C          6.68450       -5.86468       -4.33675
Br         7.94674       -5.88763       -2.83435
F          6.91781       -6.94378       -5.09970
F          6.94427       -4.75808       -5.08714
Br         4.71161       -7.37330       -2.82937
F          4.49665       -5.95491       -5.13377
N          4.29455       -1.81792       -2.02501
C          4.16582       -0.58802       -1.49518
N          4.19797        0.46757       -2.33162
C          3.69243        1.81148       -2.04300
C          2.89404        2.30085       -3.25452
O          1.66268        1.52834       -3.36864
C          1.67377        0.39283       -4.10480
O          2.66548       -0.07651       -4.64443
C          0.30745       -0.24634       -4.11310
S          0.23335       -1.52359       -2.79479
C          2.47112        3.75836       -3.15564
O          1.89797        4.11699       -4.41854
C          0.62796        4.64589       -4.39453
O         -0.01249        4.81888       -3.38220
C          0.16979        4.98097       -5.79349
S          0.97639        6.49910       -6.42459
N          4.07434       -0.43051       -0.17001
H          0.18271        0.43956        2.09657
H          0.25509       -1.28652        2.57368
H         -0.11112       -0.83918        0.87109
H          1.84634       -2.08203        0.10723
H          2.25101       -2.55014        1.79089
H          4.34712       -1.25954        1.70042
H          4.35224       -3.66574        0.80811
H          5.67605       -2.62780        0.25960
H          3.15434       -3.41926       -1.29963
H          5.01823       -5.04854       -1.25425
H          6.14049       -3.82356       -1.86031
H          4.94876       -3.72338       -4.03382
H          3.56594       -4.60584       -3.35975
H          4.22437       -1.87893       -3.03655
H          4.13994        0.22343       -3.32499
H          4.52366        2.50545       -1.84204
H          3.02996        1.79583       -1.16269
H          3.47832        2.15247       -4.17684
H          0.10621       -0.70448       -5.08692
H         -0.47342        0.48296       -3.87155
H          0.89734       -2.47890       -3.48758
H          3.34992        4.39800       -2.98347
H          1.73447        3.91781       -2.35411
H         -0.91933        5.09021       -5.79771
H          0.46677        4.19082       -6.49449
H          0.33345        7.35476       -5.59452
H          3.87461        0.49615        0.19037
