63

C         17.07817        1.38197        2.69373
C         16.31800        0.59699        1.62320
C         15.50561       -0.56877        2.19606
C         14.80650       -1.40832        1.12338
C         13.93845       -2.53010        1.70339
C         13.37831       -3.46198        0.62051
C         12.43600       -4.50649        1.22079
S         12.11569       -5.78284       -0.06529
C         10.79697       -6.61601        0.64943
N         10.06604       -6.34537        1.71192
N          9.11577       -7.35794        1.81099
C          9.34610       -8.14607        0.81935
O         10.37831       -7.79453        0.01886
N          8.64296       -9.37382        0.49850
C          8.70771      -10.40427        1.68079
C          7.98357       -9.96014        2.99232
F          6.66049       -9.79430        2.72290
F          8.14049      -10.98481        3.86190
F          8.19186      -11.53352        1.18695
F         10.02123      -10.57035        1.91300
C          7.23118       -9.16356       -0.11097
C          7.35778       -8.51435       -1.48330
C          6.00914       -8.47828       -2.22280
S          4.69258       -7.56765       -1.37241
C          3.72578       -8.89710       -0.60619
S          4.14839      -10.51091       -0.71853
N          2.63046       -8.43778        0.03411
C          2.22682       -7.02794        0.14130
C          2.02149       -6.66376        1.61606
O          1.07524       -7.52087        2.23741
C          1.49741       -8.88100        2.16311
C          1.68383       -9.33549        0.71602
H         17.64289        2.21558        2.25539
H         17.79408        0.73738        3.22483
H         16.39195        1.80249        3.44383
H         17.03054        0.20839        0.87613
H         15.64191        1.27372        1.07438
H         14.75639       -0.17680        2.90622
H         16.17180       -1.22137        2.78740
H         15.56692       -1.84414        0.45222
H         14.18050       -0.75505        0.49125
H         13.10955       -2.09198        2.28502
H         14.53395       -3.12678        2.41535
H         14.21962       -3.95988        0.10976
H         12.84277       -2.88051       -0.14606
H         11.47385       -4.07780        1.52664
H         12.88843       -5.02313        2.07784
H          9.20345       -9.84503       -0.23492
H          8.40546       -9.03038        3.40168
H          6.68122       -8.53889        0.59995
H          6.76019      -10.15331       -0.16308
H          8.05899       -9.09079       -2.11368
H          7.76174       -7.49479       -1.38844
H          5.62194       -9.49551       -2.39406
H          6.13965       -7.96940       -3.18675
H          1.28341       -6.89354       -0.41263
H          2.98294       -6.37114       -0.30405
H          1.62513       -5.64276        1.69629
H          2.99283       -6.71134        2.14788
H          0.71304       -9.47950        2.64453
H          2.44289       -9.01744        2.72377
H          0.72223       -9.28918        0.17942
H          2.07474      -10.35773        0.66365
