63

C          3.66457        3.96440        4.21332
C          4.66665        3.21581        3.33142
C          4.98587        1.80556        3.84100
C          5.98060        1.04634        2.95721
C          6.28828       -0.36774        3.46102
C          7.30404       -1.11517        2.59089
C          7.62647       -2.51262        3.12336
C          8.70313       -3.22638        2.26801
C          9.18448       -4.49651        2.90984
C         10.07685       -4.38129        4.00474
N         10.49045       -5.48446        4.65033
N         10.18071       -6.72477        4.36866
C          9.35590       -6.86716        3.33526
C          8.79064       -5.82575        2.55446
C          7.89380       -6.25373        1.38416
C          8.81370       -6.54019        0.10624
C          9.64590       -5.33525       -0.35259
C          9.72021       -7.77172        0.22742
C          7.13048       -7.56618        1.77410
O          6.34883       -7.96664        0.65721
C          6.77099       -5.25861        0.99900
C         10.71021       -3.16774        4.69310
O         11.29530       -3.34072        5.74898
O         10.57485       -2.02656        4.04073
C         11.11048       -0.81024        4.69664
C         10.04967       -0.17830        5.57468
H          3.45465        4.96785        3.81952
H          4.04427        4.08348        5.23905
H          2.70740        3.42589        4.27622
H          5.60227        3.79609        3.26011
H          4.27492        3.14818        2.30255
H          4.04933        1.22561        3.91802
H          5.38448        1.87070        4.86918
H          6.92082        1.62189        2.88604
H          5.58559        0.98767        1.92811
H          5.35207       -0.94973        3.51449
H          6.66545       -0.31325        4.49808
H          8.23828       -0.52999        2.52691
H          6.92428       -1.19068        1.55785
H          6.71425       -3.12873        3.15045
H          7.96900       -2.43405        4.16747
H          9.55780       -2.55160        2.14576
H          8.31256       -3.42238        1.27182
H         11.10730       -5.31532        5.46229
H          9.13471       -7.91003        3.13080
H          8.06814       -6.75789       -0.67459
H         10.43523       -5.07294        0.36915
H          9.04439       -4.43907       -0.54793
H         10.15297       -5.58501       -1.29383
H         10.51656       -7.64231        0.97745
H         10.22645       -7.93832       -0.73263
H          9.16865       -8.69192        0.45498
H          6.49615       -7.34921        2.65532
H          7.81246       -8.38547        2.04068
H          5.86328       -8.77191        0.89193
H          7.10513       -4.43288        0.36616
H          6.26791       -4.84802        1.88362
H          6.02290       -5.81258        0.42207
H         11.38432       -0.17446        3.84740
H         12.00846       -1.09548        5.25713
H          9.14781        0.06679        4.99918
H         10.44920        0.75595        5.99236
H          9.77884       -0.83049        6.41486
