83

C         14.46329       -7.38216       -0.45424
C         13.69871       -6.08233       -0.19589
C         14.39308       -4.84536       -0.77507
C         13.63054       -3.54185       -0.52285
C         14.30461       -2.30369       -1.12227
C         13.52398       -1.01002       -0.87310
C         14.17095        0.23593       -1.48584
C         13.36623        1.51451       -1.23455
C         13.97989        2.77053       -1.86187
C         13.14831        4.02967       -1.60218
C         13.72620        5.29969       -2.23873
C         12.84421        6.52265       -1.95522
C         13.36160        7.85723       -2.49589
C         13.50547        7.91786       -4.02726
C         12.21480        7.69156       -4.82162
C         12.42170        7.86839       -6.33009
C         11.14292        7.65517       -7.14557
C         11.34392        7.85160       -8.65109
C         10.06383        7.66111       -9.46967
C         10.26565        7.86552      -10.97435
C          8.98118        7.68350      -11.78540
C         14.67503        8.30155       -1.79577
N         14.52639        9.80290       -1.65717
C         13.02654       10.11881       -2.05531
O         12.43333        8.87477       -1.99184
C         12.39276       11.13348       -1.10435
C         11.01308       11.53385       -1.64837
O         11.20259       12.03760       -2.96954
C         12.29302       10.64164        0.34317
H         13.93791       -8.25006       -0.03253
H         15.46714       -7.34967       -0.00502
H         14.58983       -7.56122       -1.53248
H         13.55958       -5.94465        0.88980
H         12.68447       -6.15948       -0.62328
H         14.53193       -4.98291       -1.86210
H         15.40866       -4.76450       -0.34851
H         13.50503       -3.39757        0.56472
H         12.61004       -3.63304       -0.93496
H         14.43297       -2.44909       -2.20930
H         15.32301       -2.20347       -0.70745
H         13.40487       -0.86056        0.21443
H         12.50194       -1.12109       -1.27615
H         14.29161        0.08771       -2.57326
H         15.19068        0.35795       -1.08048
H         13.25697        1.66781       -0.14662
H         12.34237        1.38018       -1.62516
H         14.08820        2.62025       -2.95011
H         15.00186        2.91581       -1.46995
H         13.04727        4.18300       -0.51370
H         12.12385        3.87419       -1.98219
H         13.82632        5.14585       -3.32544
H         14.74921        5.46194       -1.85425
H         12.71059        6.63820       -0.86709
H         11.83934        6.35778       -2.37064
H         14.25953        7.16703       -4.31417
H         13.94133        8.88930       -4.32481
H         11.43842        8.39109       -4.47193
H         11.82960        6.67817       -4.62591
H         13.19962        7.16739       -6.67927
H         12.81399        8.88163       -6.52884
H         10.36319        8.35016       -6.78764
H         10.75431        6.63935       -6.95745
H         12.11520        7.14863       -9.01118
H         11.74607        8.86342       -8.83542
H          9.29108        8.36211       -9.10769
H          9.66181        6.64841       -9.29038
H         11.03377        7.16081      -11.33495
H         10.67407        8.87506      -11.15029
H          8.56844        6.67214      -11.65495
H          9.15912        7.83352      -12.85880
H          8.20712        8.39986      -11.47263
H         15.58269        8.07690       -2.36562
H         14.75144        7.87802       -0.78821
H         15.17344       10.31820       -2.26336
H         14.69193       10.10319       -0.68906
H         13.09426       10.52623       -3.07713
H         13.02148       12.04081       -1.15571
H         10.58631       12.30054       -0.97989
H         10.34194       10.65634       -1.64049
H         10.35066       12.34366       -3.31628
H         11.66275        9.74725        0.42086
H         11.85980       11.42635        0.97586
H         13.27265       10.40109        0.78836
