96

C          1.12575       -0.41875        0.45490
C          2.64915       -0.34981        0.27943
C          3.04138        0.38586       -1.01872
C          2.67167       -0.38417       -2.30377
C          2.93565        0.37558       -3.55369
N          2.46506        1.64954       -3.80609
C          2.86867        2.03126       -5.03865
N          3.59391        0.99908       -5.48873
N          3.63125       -0.03896       -4.59006
C          4.10364        0.77578       -6.82865
C          2.92225        0.46893       -7.80125
O          1.78851        0.73346       -7.42687
C          3.23765       -0.09846       -9.12666
C          2.16357       -0.33829      -10.00855
C          2.39981       -0.88220      -11.26552
C          3.70824       -1.19049      -11.65957
C          4.78128       -0.95250      -10.79455
C          4.55056       -0.40966       -9.53226
C          2.57169        3.33606       -5.69104
C          2.24666        4.46049       -4.69238
C          1.99137        5.81069       -5.37237
C          1.69679        6.92611       -4.36250
C          1.47343        8.30030       -5.00335
C          1.22469        9.40997       -3.97530
C          1.05218       10.80028       -4.59638
C          0.84046       11.90942       -3.55966
C          0.73614       13.31088       -4.17091
C          0.53821       14.41801       -3.12914
C          0.50773       15.82454       -3.73454
C          0.30973       16.91847       -2.67530
N          0.32589       18.26612       -3.22483
C         -0.76629       18.93695       -3.73191
C         -0.33010       20.14023       -4.25759
C          1.07910       20.19734       -4.06886
C          1.45590       19.02714       -3.43427
C          3.30805        0.32008        1.50237
C          4.81645        0.05158        1.65664
C          5.38811        0.72668        2.87035
C          6.42480        1.58224        2.93864
C          7.25745        2.01968        1.76142
C          6.84877        2.16832        4.26053
H          0.61790       -0.92364       -0.37973
H          0.69467        0.59036        0.55169
H          0.86685       -0.97415        1.36601
H          3.03744       -1.38313        0.21259
H          4.12395        0.58344       -1.03055
H          2.54482        1.37389       -1.00873
H          1.60232       -0.65350       -2.29315
H          3.23318       -1.32560       -2.37143
H          1.92102        2.22950       -3.17256
H          4.81082       -0.05686       -6.75460
H          4.64676        1.66663       -7.17669
H          1.15330       -0.09296       -9.68137
H          1.56622       -1.06896      -11.94285
H          3.89075       -1.62042      -12.64509
H          5.79763       -1.19425      -11.10519
H          5.40187       -0.23756       -8.87254
H          1.73264        3.17540       -6.38847
H          3.43495        3.61639       -6.31558
H          3.07578        4.56561       -3.97277
H          1.34780        4.19145       -4.10926
H          1.15075        5.71353       -6.07991
H          2.87260        6.08537       -5.97726
H          2.53376        6.99435       -3.64552
H          0.80842        6.65296       -3.76614
H          0.62191        8.24704       -5.70356
H          2.35362        8.56307       -5.61583
H          2.06628        9.43558       -3.26066
H          0.32988        9.16149       -3.37784
H          0.20129       10.78686       -5.29954
H          1.94245       11.03809       -5.20484
H          1.67426       11.89241       -2.83565
H         -0.07089       11.69484       -2.97429
H         -0.09645       13.33679       -4.89516
H          1.64960       13.52102       -4.75427
H          1.34894       14.36015       -2.38121
H         -0.39801       14.23286       -2.57343
H         -0.29986       15.90069       -4.48071
H          1.44784       16.02193       -4.27484
H          1.10019       16.85480       -1.91134
H         -0.64849       16.77554       -2.15250
H         -1.76027       18.50553       -3.66694
H         -0.95870       20.89937       -4.71193
H          1.74318       21.00838       -4.35006
H          2.42891       18.67574       -3.10555
H          2.79651       -0.03527        2.41114
H          3.12903        1.40924        1.46803
H          5.35913        0.36140        0.75070
H          4.96392       -1.04113        1.73968
H          4.87851        0.48468        3.81060
H          6.91212        1.61144        0.80392
H          8.30636        1.71026        1.89634
H          7.26902        3.11845        1.68009
H          6.21227        1.82182        5.08400
H          6.81215        3.26952        4.23540
H          7.89108        1.89888        4.49631
