77

C         -0.25704       -4.85790        1.40225
C          1.18571       -5.36032        1.48463
C          2.07853       -4.82204        0.36181
C          3.52250       -5.32769        0.43489
C          4.41651       -4.79472       -0.68918
C          5.85764       -5.31044       -0.61599
C          6.74601       -4.79778       -1.75406
C          8.18487       -5.33116       -1.68413
C          9.04443       -4.80889       -2.83975
C         10.54948       -5.21384       -2.89491
N         11.18419       -4.67762       -1.64574
C         11.43144       -5.55338       -0.73449
C         11.09295       -6.92066       -1.17234
C         10.74450       -6.75946       -2.67942
C         11.80324       -7.47518       -3.52746
O         11.69528       -8.84010       -3.18285
C         12.64983       -9.68075       -3.85666
C         12.43630      -11.11391       -3.40117
C         13.39025      -12.10149       -4.08124
C         13.17092      -13.54658       -3.62213
C         14.09479      -14.55529       -4.31116
C         13.87260      -15.99182       -3.83379
C         11.15509       -4.56974       -4.16888
C         12.67711       -4.36784       -4.36102
C         12.96886       -4.06517       -5.84961
C         12.69800       -5.21083       -6.82710
C         13.24365       -3.22874       -3.49607
H         -0.86964       -5.25758        2.22158
H         -0.73001       -5.15855        0.45583
H         -0.30056       -3.76029        1.45934
H          1.19448       -6.46274        1.45589
H          1.61989       -5.07887        2.45856
H          2.07505       -3.71830        0.39128
H          1.64317       -5.10015       -0.61395
H          3.52248       -6.43138        0.40663
H          3.95720       -5.04920        1.41081
H          4.42154       -3.69124       -0.66120
H          3.98041       -5.07203       -1.66439
H          5.84971       -6.41448       -0.62903
H          6.29987       -5.02005        0.35331
H          6.76408       -3.69444       -1.73923
H          6.30127       -5.08258       -2.72251
H          8.15041       -6.43292       -1.69299
H          8.61742       -5.03605       -0.71149
H          8.99112       -3.70672       -2.85977
H          8.61426       -5.14217       -3.79851
H         11.33578       -3.67467       -1.51764
H         11.83477       -5.25525        0.23648
H         10.26061       -7.29613       -0.55155
H         11.91973       -7.62848       -0.99832
H          9.79237       -7.26156       -2.89387
H         12.82386       -7.10187       -3.30457
H         11.62042       -7.31886       -4.60731
H         13.67559       -9.33650       -3.61869
H         12.51040       -9.58838       -4.95086
H         11.39255      -11.39793       -3.61073
H         12.56397      -11.16305       -2.30741
H         14.43518      -11.80941       -3.87875
H         13.26231      -12.04374       -5.17584
H         12.12015      -13.83117       -3.80600
H         13.31456      -13.60741       -2.52906
H         15.14461      -14.26497       -4.13714
H         13.94073      -14.49956       -5.40190
H         14.06277      -16.08636       -2.75429
H         14.53839      -16.69515       -4.35165
H         12.83749      -16.31640       -4.01701
H         10.67984       -3.58111       -4.29096
H         10.76124       -5.17794       -4.99635
H         13.21808       -5.29342       -4.10782
H         14.02932       -3.77956       -5.92617
H         12.39590       -3.17121       -6.15111
H         13.26959       -6.11140       -6.55786
H         12.99860       -4.92488       -7.84331
H         11.63478       -5.48707       -6.88084
H         12.65963       -2.30299       -3.62128
H         14.27597       -3.00063       -3.79354
H         13.28902       -3.47077       -2.42394
