60

C          2.81883       -3.90126       -6.86492
C          3.29224       -2.62961       -7.57249
C          4.14753       -1.72484       -6.67874
C          4.65829       -0.46842       -7.39271
C          5.49243        0.44178       -6.47992
C          6.08807        1.60669       -7.25565
O          6.78858        2.55544       -6.37257
C          8.04519        2.26994       -6.04307
O          8.68305        1.30084       -6.44229
C          8.63305        3.27689       -5.06782
C         10.16684        3.24558       -5.09971
C         10.83208        3.88139       -6.34908
C         12.01673        2.96531       -6.73721
N         11.73094        1.73355       -5.92429
C         10.73327        1.87126       -5.10435
N         12.61615        0.66074       -5.97926
C         12.52791       -0.07420       -7.25393
C         12.58792       -0.19414       -4.79465
C         13.44855        3.52739       -6.52115
C         13.83984        3.57711       -5.03915
O         13.03638        3.54646       -4.11966
O         15.16584        3.68785       -4.88906
C         15.67663        3.82383       -3.51911
C         15.73622        5.28153       -3.10307
C         14.51316        2.88921       -7.42743
H          2.20428       -4.52386       -7.52878
H          2.21274       -3.66471       -5.97799
H          3.66958       -4.51340       -6.53023
H          2.41968       -2.06091       -7.93521
H          3.87020       -2.90183       -8.47201
H          5.00942       -2.29954       -6.29601
H          3.56190       -1.43020       -5.79049
H          3.80365        0.09941       -7.79808
H          5.26438       -0.77095       -8.26447
H          6.30402       -0.14281       -6.01882
H          4.86572        0.83212       -5.66251
H          5.31280        2.22521       -7.72395
H          6.79786        1.26481       -8.02106
H          8.26132        3.01261       -4.06414
H          8.25298        4.28607       -5.27328
H         10.54997        3.73475       -4.18779
H         11.16859        4.90283       -6.14342
H         10.11357        3.92503       -7.17788
H         11.94160        2.67821       -7.79509
H         10.45603        1.06761       -4.42709
H         12.64396        0.61275       -8.09887
H         11.57162       -0.61516       -7.35242
H         13.35834       -0.78794       -7.28203
H         12.72759        0.42455       -3.89858
H         13.43484       -0.88461       -4.87875
H         11.66416       -0.79516       -4.69990
H         13.36552        4.58876       -6.81919
H         16.67367        3.37094       -3.57153
H         15.03614        3.23254       -2.85255
H         16.35041        5.86704       -3.79904
H         16.19162        5.35481       -2.10568
H         14.73345        5.72379       -3.04898
H         14.74068        1.86034       -7.12412
H         15.44468        3.46269       -7.38589
H         14.16962        2.88237       -8.47108
