31

C          1.16393        0.24611        0.13240
O          2.54898        0.05898        0.54922
C          3.30624        1.15857        0.57678
O          2.92736        2.28693        0.30828
C          4.73796        0.85468        1.01557
C          5.00108        1.34650        2.45511
C          4.58910        2.78640        2.76132
N          5.69718        3.63895        2.27087
C          6.86340        3.04823        2.33143
S          6.84220        1.38491        2.75086
C          8.19387        3.75082        2.05009
C          8.79971        3.44281        0.64515
F          9.11270        2.12842        0.55872
F          7.85208        3.73130       -0.29972
F          8.02199        5.10254        2.13071
F          9.08722        3.36652        2.99807
C          5.33669        5.15635        2.06956
O          5.15491        5.77163        3.06822
C          5.14601        5.50735        0.64235
H          0.70166       -0.73827        0.23761
H          1.13393        0.58256       -0.91037
H          0.67269        0.98518        0.77568
H          5.39585        1.37907        0.30803
H          4.94448       -0.22026        0.95247
H          4.57184        0.65981        3.19581
H          4.48825        2.96705        3.84388
H          3.65977        3.06412        2.24749
H          9.69617        4.06158        0.47759
H          4.39143        4.83052        0.20814
H          6.07512        5.34873        0.07867
H          4.81908        6.54880        0.56200
