34

C          1.20173        0.16264       -1.38601
C          2.22565        0.11305       -0.74358
C          3.49220        0.01046       -0.01875
C          4.49006        1.17924       -0.25670
C          5.32605        0.75005       -1.47758
N          5.16227       -0.76505       -1.44321
C          4.21601       -1.14429       -0.65570
C          5.96400       -1.65203       -2.29802
C          5.62260       -1.44959       -3.78101
C          6.35942       -2.46618       -4.64790
F          7.70429       -2.35594       -4.49831
F          6.01540       -3.73815       -4.31372
F          6.06452       -2.28200       -5.94944
C          6.77418        1.16446       -1.50464
C          7.26268        1.88256       -2.60440
C          8.60201        2.27625       -2.65091
C          9.46260        1.94226       -1.60272
C          8.98332        1.22037       -0.50414
C          7.64403        0.83554       -0.45139
H          0.27784        0.22671       -1.92604
H          3.29994       -0.17132        1.05035
H          5.13806        1.28959        0.62211
H          3.97966        2.13102       -0.43088
H          4.83871        1.06698       -2.41398
H          3.94751       -2.19753       -0.54927
H          5.76686       -2.68476       -1.98472
H          7.02034       -1.41856       -2.10744
H          5.92131       -0.45199       -4.12878
H          4.54586       -1.57781       -3.96033
H          6.58956        2.14930       -3.42267
H          8.97152        2.84244       -3.50585
H         10.50911        2.24557       -1.63856
H          9.65496        0.96073        0.31426
H          7.28336        0.27455        0.41424
