46

C          0.97693        2.45022       -1.36242
O          2.39885        2.26229       -1.42567
C          2.79216        1.02471       -0.89867
N          4.25913        0.99583       -0.92762
C          5.02761        0.20438       -1.76447
C          6.35202        0.48480       -1.52392
N          6.32516        1.45786       -0.53512
C          5.06746        1.77162       -0.17792
C          4.66890        2.79966        0.82925
O          3.87315        2.16660        1.81180
C          3.33363        3.09986        2.75784
C          7.62713       -0.09167       -2.07741
C          8.04101       -1.37349       -1.27736
C          7.00781       -2.46713       -0.93667
C          6.50877       -3.27294       -2.14648
C          7.62827       -3.41615        0.10274
C          7.39652       -0.37413       -3.59888
O          8.48188       -1.07267       -4.18482
C          8.77878        0.92827       -1.95045
H          0.78355        3.44631       -1.77238
H          0.61564        2.40156       -0.32165
H          0.44835        1.69733       -1.96967
H          2.44239        0.17187       -1.50772
H          2.46324        0.89488        0.14662
H          4.56824       -0.50284       -2.44318
H          7.15461        1.88716       -0.13260
H          4.11132        3.60936        0.31838
H          5.58565        3.24695        1.26248
H          2.73462        2.51219        3.46088
H          2.69433        3.84751        2.25881
H          4.13771        3.61657        3.30799
H          8.47050       -1.01910       -0.32596
H          8.87409       -1.82427       -1.83992
H          6.13511       -1.98812       -0.45524
H          7.35019       -3.66512       -2.73591
H          5.87839       -2.68814       -2.83002
H          5.90622       -4.12872       -1.81315
H          8.50838       -3.93288       -0.30860
H          6.90720       -4.18549        0.41005
H          7.94907       -2.87621        1.00501
H          7.20435        0.58425       -4.11024
H          6.50811       -1.00411       -3.73895
H          9.06369       -0.44733       -4.64076
H          9.03380        1.14935       -0.90239
H          8.55870        1.87109       -2.47264
H          9.68891        0.50003       -2.38943
