89

C          0.29128        0.04356        0.27025
C          1.82001        0.07160        0.19287
C          2.47411       -1.27280        0.53252
C          4.00481       -1.24127        0.47770
C          4.66539       -2.58427        0.80628
C          6.19672       -2.53129        0.79712
C          6.86435       -3.87994        1.08580
C          8.39367       -3.80675        1.14322
C          9.06636       -5.15936        1.40074
C         10.59404       -5.07686        1.48732
C         11.26981       -6.43324        1.71461
C         12.79622       -6.34592        1.81908
C         13.47316       -7.70662        2.01502
C         14.99709       -7.61415        2.14231
C         15.66304       -8.98870        2.29051
C         17.18755       -8.96304        2.52951
C         17.95013      -10.22864        2.07365
C         18.26375      -11.03260        3.36195
C         18.08909      -10.00138        4.41221
N         17.54074       -8.90686        3.99748
C         17.23155       -7.75044        4.86281
C         15.87834       -7.84468        5.60916
C         15.82533       -9.01635        6.59380
C         15.63911       -6.49803        6.30741
C         19.63429      -11.74119        3.40059
C         19.74535      -12.85181        2.34969
C         21.09022      -13.60077        2.40968
C         21.17609      -14.69383        1.36857
C         20.64419      -15.96713        1.62251
C         20.68543      -16.96634        0.64775
C         21.26152      -16.70542       -0.59879
C         21.79688      -15.44206       -0.86266
C         21.75260      -14.44491        0.11475
H         -0.14410        1.02026        0.01802
H         -0.05290       -0.22251        1.28100
H         -0.13045       -0.69723       -0.42585
H          2.20903        0.84545        0.87663
H          2.13278        0.38046       -0.81912
H          2.09777       -2.04620       -0.16058
H          2.15145       -1.59032        1.54005
H          4.37665       -0.47220        1.17787
H          4.32751       -0.91364       -0.52644
H          4.32015       -3.34715        0.08619
H          4.32003       -2.92842        1.79738
H          6.53801       -1.78893        1.54030
H          6.54355       -2.15648       -0.18218
H          6.56094       -4.60996        0.31482
H          6.48361       -4.27812        2.04313
H          8.69398       -3.09349        1.93130
H          8.77524       -3.38582        0.19605
H          8.78332       -5.86564        0.60041
H          8.67121       -5.59175        2.33713
H         10.87603       -4.38640        2.30179
H         10.98831       -4.62534        0.56004
H         10.99967       -7.11742        0.89127
H         10.86684       -6.89390        2.63392
H         13.06734       -5.67818        2.65631
H         13.19881       -5.86769        0.90928
H         13.21700       -8.36898        1.17044
H         13.06126       -8.19612        2.91564
H         15.24318       -6.95753        2.99281
H         15.41443       -7.11456        1.25175
H         15.50136       -9.55454        1.36030
H         15.17739       -9.58216        3.08357
H         17.60998       -8.05268        2.07768
H         18.89504       -9.94549        1.58882
H         17.36850      -10.80804        1.34994
H         17.48804      -11.80386        3.54580
H         18.38394      -10.10365        5.45921
H         17.25561       -6.86170        4.21944
H         18.05090       -7.66319        5.59152
H         15.08175       -7.98418        4.86297
H         16.61308       -8.94008        7.35962
H         15.91586       -9.99475        6.09883
H         14.86077       -9.02325        7.11764
H         16.41818       -6.28801        7.05562
H         14.67371       -6.50790        6.82899
H         15.62220       -5.66559        5.59027
H         19.78897      -12.16863        4.40496
H         20.43106      -10.99317        3.24978
H         19.61828      -12.43615        1.33697
H         18.92269      -13.57310        2.49030
H         21.22080      -14.03173        3.41566
H         21.91435      -12.88421        2.26440
H         20.20326      -16.18306        2.59900
H         20.27528      -17.95349        0.86462
H         21.30154      -17.48736       -1.35774
H         22.25820      -15.23547       -1.82917
H         22.18386      -13.46267       -0.09405
