55

C          0.90628       -0.47880        0.47317
C          2.39469       -0.73064        0.22136
C          2.87272       -0.21017       -1.14023
C          4.36951       -0.44928       -1.38038
C          4.81980        0.01971       -2.75257
O          6.24717       -0.17786       -2.85775
C          6.75421        0.17661       -4.13112
C          8.25779        0.05839       -4.07613
C          9.09322        1.17067       -4.25528
C         10.46154        1.01739       -4.17805
C         10.97852       -0.25991       -3.86915
N         10.17074       -1.29981       -3.68393
N          8.85447       -1.12625       -3.80914
C          8.12436       -2.41012       -3.78906
C          8.29560       -3.07795       -5.18214
C          7.58249       -4.45096       -5.24151
N          6.15951       -4.23100       -5.53087
O          7.78823       -2.23828       -6.19679
C         12.46022       -0.49922       -3.72164
C         12.90493       -1.95489       -3.76237
O         12.57619       -2.48063       -5.04423
C         13.08934       -3.78126       -5.25397
C         12.41344       -4.37667       -6.48484
F         12.52892       -3.58559       -7.57039
F         12.96621       -5.57782       -6.77080
F         11.07913       -4.58328       -6.27352
H          0.59657       -0.86765        1.45222
H          0.28136       -0.96555       -0.28996
H          0.67352        0.59608        0.45551
H          2.60389       -1.81158        0.28871
H          2.99048       -0.25675        1.01936
H          2.65619        0.86945       -1.21415
H          2.28476       -0.69355       -1.93993
H          4.60000       -1.52218       -1.27456
H          4.96114        0.07738       -0.61461
H          4.59291        1.09198       -2.90224
H          4.31175       -0.54666       -3.55661
H          6.50721        1.22296       -4.38894
H          6.35258       -0.46490       -4.93766
H          8.63803        2.13856       -4.46246
H         11.13534        1.85994       -4.33704
H          7.08029       -2.21014       -3.52860
H          8.59539       -3.01803       -3.00804
H          9.37470       -3.21130       -5.34888
H          7.76772       -5.03248       -4.32376
H          8.02985       -5.00622       -6.07600
H          5.57730       -4.26622       -4.69589
H          5.79392       -4.91977       -6.18433
H          6.87108       -2.58725       -6.33491
H         12.78787       -0.05467       -2.76638
H         12.97722        0.06515       -4.51315
H         12.41419       -2.54627       -2.96731
H         13.99590       -1.99391       -3.59166
H         12.87906       -4.45477       -4.40377
H         14.17923       -3.76912       -5.43557
