47

C          3.43083       -1.95764       -0.58191
C          3.13464       -0.58182        0.01851
C          4.21966       -0.10050        0.99098
C          3.95845        1.31704        1.51507
C          4.85543        1.77776        2.68089
P          6.64091        1.63556        2.38972
C          7.31071        2.50060        0.93643
C          6.99130        4.02332        0.89953
N          7.15296        4.52498        2.27493
N          7.84054        4.57968       -0.15418
N          5.58256        4.19052        0.55447
C          7.55166        1.91753        3.95023
C          9.06190        1.94630        3.71963
O          9.63192        2.88024        3.18152
O          9.62590        0.81679        4.15133
C         11.08780        0.68887        4.00390
C         11.81371        1.19933        5.23945
C         13.32387        0.96152        5.12503
H          2.62049       -2.28242       -1.24668
H          3.54274       -2.72284        0.19997
H          4.35827       -1.94731       -1.17311
H          2.16799       -0.60548        0.54759
H          3.01981        0.15867       -0.79048
H          5.19475       -0.14393        0.47101
H          4.29187       -0.81034        1.83442
H          2.92369        1.38341        1.88655
H          4.04117        2.05259        0.70269
H          4.67713        1.17484        3.58734
H          4.67922        2.83354        2.93133
H          6.90035        0.27283        2.11374
H          6.89666        2.00648        0.04670
H          8.39573        2.31590        0.94255
H          8.13625        4.44798        2.55491
H          6.90799        5.51703        2.32176
H          8.83490        4.51377        0.07328
H          7.62011        5.56426       -0.31429
H          5.22058        5.07983        0.89993
H          5.47608        4.18460       -0.46122
H          7.26585        1.10927        4.63630
H          7.22408        2.88902        4.33973
H         11.39038        1.22946        3.09719
H         11.23531       -0.38905        3.86110
H         11.41367        0.68644        6.12718
H         11.60901        2.27379        5.36270
H         13.55800       -0.10779        5.02339
H         13.83921        1.32907        6.02076
H         13.75157        1.48450        4.25785
