47

C          0.64612       -1.43844        1.55818
C          2.11682       -1.13286        1.85237
C          3.03947       -1.49335        0.67962
C          4.51706       -1.16702        0.90467
N          5.08145       -2.01485        1.96407
C          6.29400       -1.85989        2.51751
N          6.71949       -2.67792        3.49580
C          8.12902       -2.66153        3.96724
C          8.59638       -4.07127        4.26186
C         10.00181       -4.13479        4.86797
C         10.36050       -5.55946        5.31121
N          9.41100       -6.04207        6.32305
O          8.92595       -2.09470        2.94246
C          8.50195       -0.78728        2.60786
N          7.10723       -0.87098        2.11721
C          9.42154       -0.22490        1.53699
C          9.06038        1.19326        1.07299
C         10.07567        1.75022        0.07148
H          0.00849       -1.16257        2.40787
H          0.48856       -2.50823        1.35774
H          0.29042       -0.88015        0.68053
H          2.42382       -1.67298        2.76467
H          2.23625       -0.06159        2.08514
H          2.72211       -0.94356       -0.21959
H          2.93939       -2.56242        0.42132
H          4.61871       -0.10945        1.20268
H          5.08253       -1.32175       -0.03001
H          4.51513       -2.79518        2.28094
H          6.15070       -3.47913        3.74969
H          8.18212       -2.02273        4.86975
H          8.55341       -4.65125        3.32515
H          7.89671       -4.53924        4.97487
H         10.05832       -3.46075        5.74068
H         10.74953       -3.77701        4.14560
H         11.41507       -5.57060        5.64197
H         10.29826       -6.23515        4.44369
H          9.62773       -5.64457        7.23846
H          9.47736       -7.05391        6.42792
H          8.50878       -0.15032        3.51337
H          6.85223       -0.32747        1.29932
H          9.43425       -0.92717        0.68765
H         10.43450       -0.22927        1.96610
H          8.99195        1.86184        1.94665
H          8.06069        1.20789        0.60107
H         11.07881        1.80897        0.51606
H          9.79478        2.75965       -0.25388
H         10.14385        1.11616       -0.82390
