85

C          2.01099        2.73945       -2.54580
C          0.90026        1.86326       -2.02349
C          0.21587        0.97764       -2.86534
C         -0.77887        0.14628       -2.35343
C         -1.16461        0.16484       -1.00530
C         -0.47583        1.06815       -0.17174
C          0.54658        1.88534       -0.66684
O         -0.85722        1.08437        1.17394
C         -0.76625        2.29078        1.90691
C         -1.98143        3.20726        1.61429
O         -1.93132        4.45975        2.28647
C         -0.86781        5.31094        1.89444
C         -1.17987        6.71776        2.41864
C         -2.33918        7.42242        1.68452
C         -1.87789        8.45918        0.66003
C         -2.84028        8.72731       -0.55529
C         -4.34081        9.15114       -0.30689
C         -4.70521       10.46231        0.49980
C         -4.21014       11.89432        0.04161
C         -4.58568       12.49264       -1.37423
C         -6.09008       12.70696       -1.81377
C         -7.01868       13.62069       -0.92978
F         -6.42552       14.79663       -0.66710
F         -8.15562       13.84431       -1.60775
F         -7.32462       13.01324        0.23109
F         -6.02122       13.27913       -3.04241
F         -6.68822       11.49366       -1.93587
F         -3.96741       13.69792       -1.42281
F         -4.02756       11.68970       -2.32155
F         -4.65931       12.75391        0.98939
F         -2.85094       11.88467        0.08880
F         -6.05548       10.47937        0.57498
F         -4.21394       10.29030        1.76280
F         -4.92793        9.20668       -1.52268
F         -4.92221        8.13089        0.39653
F         -2.25589        9.62097       -1.37939
F         -2.92280        7.52618       -1.23145
F         -1.55572        9.62958        1.26195
F         -0.69022        8.04095        0.02606
N         -0.74345        5.29648        0.41448
C         -1.46442        4.47447       -0.35316
N         -1.46903        4.67613       -1.71270
C         -2.09997        3.84282       -2.63105
O         -2.78273        2.88397       -2.34350
C         -1.86827        4.26325       -4.11775
C         -3.19420        4.87311       -4.71972
C         -3.04697        5.96988       -5.84049
C         -2.13763        5.59170       -7.04642
O         -1.89139        4.44717       -7.31889
O         -1.69529        6.63958       -7.76029
F         -4.30224        6.21940       -6.30636
F         -2.59176        7.12806       -5.25346
F         -3.96950        3.87084       -5.16515
F         -3.83691        5.48884       -3.66907
F         -0.87234        5.22178       -4.17083
F         -1.46169        3.18456       -4.79753
N         -2.13741        3.47166        0.18207
C         -2.28302       -0.75559       -0.53427
C         -1.81030       -1.79767        0.49693
C         -3.53275        0.00594       -0.04949
H          2.95730        2.18043       -2.60624
H          2.19024        3.60590       -1.89400
H          1.79263        3.10580       -3.55821
H          0.46440        0.93343       -3.92678
H         -1.29909       -0.53794       -3.02663
H          1.09709        2.54995        0.00147
H          0.18290        2.81989        1.73142
H         -0.80474        2.01373        2.96869
H         -2.90394        2.72170        1.95536
H          0.09130        4.96313        2.31516
H         -0.26054        7.31927        2.39290
H         -1.43038        6.58886        3.47952
H         -2.97222        7.96255        2.39916
H         -2.99135        6.68573        1.19863
H         -0.37031        6.14716       -0.00606
H         -0.93607        5.45824       -2.08941
H         -1.96535        7.48591       -7.35373
H         -2.61171        2.82707       -0.46345
H         -2.59020       -1.31208       -1.43462
H         -1.52572       -1.32864        1.44762
H         -0.94399       -2.35702        0.12018
H         -2.61442       -2.51824        0.70099
H         -3.35050        0.51395        0.90791
H         -4.36424       -0.69367        0.11263
H         -3.86686        0.74145       -0.79577
