63

C         -0.08193       -1.66558       -2.14910
C          0.67458       -1.23442       -0.89019
C          2.07043       -1.86429       -0.78995
C          2.75763       -1.56735        0.53271
O          4.07897       -2.14351        0.50168
C          4.67546       -2.26350        1.77540
C          6.01974       -2.98740        1.66308
O          5.95171       -4.36964        1.32693
C          5.49582       -4.62384        0.02125
N          6.16403       -3.72424       -0.93156
C          6.87891       -2.64566       -0.55922
N          7.54455       -1.96651       -1.52685
C          7.78533       -0.55367       -1.57434
C          6.79885        0.34834       -1.15628
C          7.05866        1.71770       -1.22513
C          8.27777        2.18187       -1.72844
C          9.24468        1.27265       -2.16348
C          9.00663       -0.09988       -2.08204
N          6.95035       -2.30465        0.73959
C          8.11443       -1.62460        1.32917
C          9.28975       -2.58791        1.53038
O         10.22724       -1.87855        2.31276
C         11.46191       -2.54003        2.50128
C         12.54016       -1.50164        2.83107
C         13.17300       -0.70226        1.63403
C         12.29550        0.22116        0.71279
C         11.60129        1.44334        1.39021
F         11.19983        2.29633        0.40274
F         10.49172        1.03702        2.06652
F         13.14908        0.71929       -0.22436
F         11.36589       -0.54045        0.05839
F         14.14908        0.09582        2.15203
F         13.75428       -1.62148        0.80846
F         12.08308       -0.60221        3.75085
F         13.58831       -2.17982        3.39358
H         -1.06304       -1.17710       -2.20859
H         -0.25211       -2.75221       -2.15933
H          0.47342       -1.40650       -3.06254
H          0.08530       -1.50790        0.00074
H          0.76728       -0.13631       -0.86853
H          2.70459       -1.50231       -1.61686
H          1.99192       -2.95886       -0.90532
H          2.18834       -2.00672        1.37254
H          2.83777       -0.47909        0.71464
H          4.03762       -2.84394        2.46909
H          4.85862       -1.27202        2.23710
H          6.48986       -2.97292        2.65501
H          4.40741       -4.48095       -0.07787
H          5.76951       -5.66490       -0.19993
H          5.79996       -3.72534       -1.87992
H          7.74851       -2.49316       -2.37251
H          5.83981       -0.02058       -0.78842
H          6.29665        2.42584       -0.89933
H          8.47331        3.25240       -1.78379
H         10.19839        1.62912       -2.55191
H          9.77070       -0.81327       -2.39411
H          7.80079       -1.21837        2.29921
H          8.41834       -0.77107        0.71496
H          9.72250       -2.87278        0.55197
H          8.95622       -3.51526        2.03670
H         11.77686       -3.10001        1.60373
H         11.42332       -3.23867        3.35593
H         12.28072        1.97352        2.07492
