71

C          5.77567       -0.54450        1.92102
C          6.14511        0.80640        2.53722
C          5.13362        1.90989        2.20917
C          5.51303        3.23886        2.87085
N          4.56991        4.33171        2.56893
C          3.46812        4.50947        3.33207
S          3.08234        3.57842        4.66648
S          2.43762        5.88114        2.77197
C          1.13040        5.89486        4.02125
C         -0.05802        4.98838        3.69208
C         -1.00815        4.91686        4.89856
C         -2.30102        4.22933        4.62026
N         -2.90494        4.12808        3.46230
N         -4.08479        3.45630        3.71285
C         -4.20209        3.15786        5.01968
N         -5.20183        2.47182        5.61107
C         -5.19329        2.07844        7.02581
C         -5.36533        3.21404        8.01208
C         -6.49988        3.86353        8.28860
Br        -8.12721        3.44172        7.42591
Br        -3.78583        3.73489        8.96848
N         -3.07531        3.63242        5.61022
C         -5.01573        3.13110        2.62756
C         -6.26380        4.03435        2.56354
C         -5.92759        5.53466        2.42593
C         -5.18011        5.94213        1.15241
C         -7.17686        3.51485        1.44419
C          4.87258        5.15621        1.38351
C          5.60611        6.47493        1.67479
C          6.99192        6.33815        2.31291
C          7.67621        7.69286        2.50841
H          6.51600       -1.31520        2.17386
H          5.72057       -0.48253        0.82418
H          4.79656       -0.89025        2.28436
H          7.14663        1.11042        2.18907
H          6.22148        0.70310        3.63238
H          4.13168        1.61600        2.55826
H          5.06914        2.04265        1.11584
H          6.50421        3.56724        2.52890
H          5.54672        3.11923        3.96224
H          0.82360        6.94939        4.09345
H          1.60789        5.58742        4.96537
H          0.31026        3.97890        3.46294
H         -0.59116        5.36100        2.80690
H         -1.23999        5.93556        5.25958
H         -0.50437        4.40341        5.73379
H         -6.10200        2.47818        5.14142
H         -4.26579        1.52977        7.23777
H         -6.02576        1.37254        7.15018
H         -6.58685        4.67034        9.01285
H         -2.89968        3.64553        6.62046
H         -5.30696        2.07543        2.74790
H         -4.42271        3.20652        1.70759
H         -6.81435        3.92099        3.51737
H         -5.34603        5.85543        3.30592
H         -6.87869        6.08637        2.48389
H         -4.19320        5.46401        1.07774
H         -5.01150        7.02681        1.14719
H         -5.74753        5.69933        0.24427
H         -6.68051        3.55710        0.46488
H         -8.08935        4.12186        1.38210
H         -7.47923        2.47259        1.61874
H          3.93065        5.36265        0.85190
H          5.47714        4.52689        0.71390
H          4.96960        7.10916        2.31109
H          5.69762        7.00435        0.71099
H          7.62768        5.69242        1.68322
H          6.90326        5.83305        3.28798
H          7.81844        8.21109        1.54890
H          8.66367        7.57831        2.97504
H          7.07664        8.34998        3.15514
