77

C         13.56785       17.15665       11.82957
C         12.95078       16.66993       10.51611
C         12.59720       15.17864       10.53029
C         11.96565       14.67597        9.22817
C         11.64350       13.17869        9.25055
C         10.98073       12.65478        7.97218
C         10.66940       11.15610        8.03164
C         10.05042       10.58366        6.75155
C          9.76864        9.08003        6.86358
C          9.21943        8.40161        5.59838
C         10.06124        8.60201        4.33334
O         11.47626        8.40117        4.52414
C         11.88625        7.06961        4.71245
C         13.36753        7.15105        5.12259
N         13.98225        5.81207        5.12780
C         14.37627        5.16030        6.23307
N         15.14767        4.05658        6.15766
C         15.70663        3.46042        4.93994
C         14.79470        2.41257        4.33573
O         14.67194        1.21722        5.11716
C         15.32721        1.13478        3.83598
N         14.00101        5.60900        7.44022
C         13.22421        6.83400        7.60359
C         13.57633        7.82037        6.48316
C         13.55517        7.36551        9.00502
O         14.38209        6.83027        9.72252
O         12.81763        8.43408        9.27631
C         13.03712        9.12663       10.55824
C         14.13810       10.16649       10.42839
C         14.19752       11.09142       11.65215
C         15.29706       12.14876       11.53029
H         13.81077       18.22717       11.78866
H         14.49751       16.61475       12.06039
H         12.87945       17.00566       12.67455
H         13.64661       16.87037        9.68358
H         12.04237       17.25545       10.29555
H         11.90808       14.97730       11.36981
H         13.50906       14.59356       10.74502
H         12.64358       14.89181        8.38353
H         11.04204       15.24560        9.02589
H         10.98997       12.96087       10.11408
H         12.57626       12.61550        9.42963
H         11.63808       12.85901        7.10861
H         10.05073       13.21766        7.78282
H          9.99718       10.95673        8.88510
H         11.60057       10.60408        8.24706
H         10.73743       10.77812        5.91114
H          9.11587       11.11997        6.51355
H          9.05415        8.90512        7.68417
H         10.69671        8.57415        7.17720
H          8.21364        8.78934        5.36695
H          9.07690        7.32667        5.79732
H          9.99256        9.63909        3.98036
H          9.69860        7.94881        3.51947
H         11.78546        6.47563        3.78020
H         11.29902        6.54743        5.49329
H         13.88755        7.74642        4.35654
H         14.14240        5.36634        4.23192
H         15.18163        3.47623        6.99080
H         16.66229        2.99804        5.22181
H         15.94361        4.25784        4.21902
H         13.84348        2.77637        3.92398
H         14.77261        0.59245        3.06597
H         16.40375        0.94254        3.87529
H         14.55097        5.37303        8.27388
H         12.14520        6.60493        7.58382
H         14.62337        8.13864        6.59539
H         12.93889        8.71022        6.53392
H         13.25750        8.37277       11.32524
H         12.06362        9.59017       10.76061
H         13.94966       10.76725        9.52370
H         15.10797        9.66297       10.28922
H         14.35827       10.49143       12.56288
H         13.22095       11.58787       11.77752
H         16.29262       11.68728       11.46216
H         15.29896       12.81910       12.39949
H         15.15455       12.77019       10.63398
