50

C          1.20211        0.64133       -0.71016
C          2.70449        0.72565       -0.83007
O          3.15901       -0.45308       -1.60776
C          4.46528       -0.64548       -1.67878
O          5.34694        0.03853       -1.18966
C          4.79365       -1.92127       -2.46480
N          6.27079       -1.93365       -2.68122
C          6.80873       -1.38309       -4.01305
C          5.96145       -0.29065       -4.65300
C          6.67407        0.32538       -5.86989
C          5.81179        1.43721       -6.47314
S          6.68717        2.17433       -7.88026
C          5.54924        3.43831       -8.37191
S          4.18666        3.85255       -7.55469
N          5.97370        4.07500       -9.54286
C          6.94309        3.64305      -10.46037
N          7.08911        4.48711      -11.44347
C          6.19858        5.52469      -11.18306
C          5.49679        5.29347      -10.03532
C          6.99584       -2.67460       -4.84598
O          6.80572       -3.78608       -3.93341
C          6.90855       -3.31239       -2.64244
N          8.29311       -3.10107       -2.21541
N          8.27787       -2.36368       -0.99373
N          9.03762       -4.30379       -2.14436
H          0.84163        1.51767       -0.15487
H          0.89289       -0.25730       -0.16145
H          0.71805        0.64188       -1.69493
H          3.21647        0.69879        0.14057
H          3.03863        1.61750       -1.37752
H          4.24712       -1.98208       -3.41032
H          4.51669       -2.79544       -1.86012
H          6.69360       -1.39302       -1.88351
H          7.79102       -0.97579       -3.74243
H          5.77097        0.50524       -3.91721
H          4.98621       -0.69009       -4.97397
H          6.87678       -0.44673       -6.62954
H          7.65034        0.73085       -5.55937
H          5.60790        2.23477       -5.74455
H          4.84321        1.05492       -6.82689
H          7.45612        2.69195      -10.35156
H          6.12287        6.37817      -11.84936
H          4.73116        5.84545       -9.50601
H          7.99723       -2.71433       -5.29435
H          6.23926       -2.78662       -5.63439
H          6.33195       -3.97995       -1.97156
H          9.17377       -1.87866       -0.92049
H          8.21759       -2.99823       -0.18664
H          9.47665       -4.48148       -3.04715
H          8.45645       -5.11416       -1.89416
