75

C         10.12684       -0.82056      -15.56541
C          9.37878       -0.82410      -14.23009
C          9.89702       -1.87944      -13.24614
C          9.15221       -1.88645      -11.90748
C          9.66110       -2.94218      -10.92003
C          8.93476       -2.91737       -9.57142
C          9.44823       -3.96171       -8.57593
C          8.80870       -3.85194       -7.18753
C          9.24502       -4.94229       -6.20779
O         10.67070       -5.09472       -6.08986
C         11.32590       -4.03231       -5.41071
C         12.84896       -4.21303       -5.49101
C         13.37896       -4.05245       -6.93620
C         14.88125       -3.74158       -7.04343
C         15.34612       -3.46902       -8.47770
C         16.84937       -3.18865       -8.58780
C         17.30341       -2.92434      -10.02503
N         13.03357       -5.26194       -7.71551
C         13.00105       -6.47045       -7.14813
N         12.70964       -7.55983       -7.89559
N         13.30350       -6.61700       -5.85940
C         13.40619       -5.51776       -4.87666
C         12.76148       -5.94936       -3.55225
C         13.44500       -7.15241       -2.88861
C         12.82886       -7.52266       -1.53396
C         13.47184       -8.75707       -0.89068
C         12.84835       -9.12857        0.45694
H          9.72978       -0.05546      -16.24600
H         10.04185       -1.79217      -16.07440
H         11.19819       -0.61368      -15.42420
H          8.30402       -0.99451      -14.40964
H          9.45148        0.17279      -13.76341
H         10.97365       -1.70930      -13.06551
H          9.82340       -2.87796      -13.71253
H          8.07591       -2.05023      -12.08912
H          9.22981       -0.88828      -11.44192
H         10.74379       -2.78923      -10.75267
H          9.56233       -3.94458      -11.37383
H          7.85397       -3.06884       -9.73209
H          9.03385       -1.91247       -9.12517
H         10.54310       -3.84764       -8.47788
H          9.28208       -4.97624       -8.98076
H          7.71170       -3.92077       -7.27427
H          9.00417       -2.85162       -6.76705
H          8.89792       -5.92622       -6.55666
H          8.80593       -4.76518       -5.20857
H         10.99747       -3.99032       -4.35451
H         11.07742       -3.05296       -5.86081
H         13.27788       -3.39077       -4.89777
H         12.81950       -3.23453       -7.41551
H         15.46600       -4.57529       -6.61991
H         15.08833       -2.86382       -6.41020
H         14.78213       -2.61275       -8.88832
H         15.09828       -4.33443       -9.11618
H         17.40792       -4.04528       -8.17445
H         17.10619       -2.32464       -7.95279
H         17.09865       -3.78728      -10.67594
H         18.38168       -2.72448      -10.07164
H         16.78657       -2.05414      -10.45541
H         12.48460       -5.13661       -8.55939
H         12.57908       -7.47092       -8.89496
H         12.35085       -8.39811       -7.45690
H         13.43974       -7.55921       -5.50618
H         14.48273       -5.35968       -4.68948
H         11.69459       -6.16494       -3.71771
H         12.81203       -5.08798       -2.86700
H         14.52122       -6.94359       -2.76071
H         13.38400       -8.04636       -3.53909
H         11.74656       -7.69812       -1.66154
H         12.91766       -6.66201       -0.84910
H         14.55245       -8.57823       -0.76140
H         13.38740       -9.61211       -1.58325
H         12.95156       -8.31094        1.18497
H         13.32925      -10.01690        0.88688
H         11.77548       -9.34843        0.35523
