80

O          1.63770        2.43511       -0.57319
C          3.04379        2.13311       -0.55261
C          3.68675        2.54849        0.77430
C          2.97889        2.02645        2.05672
C          1.75387        2.89162        2.43763
N          0.66279        2.06844        2.98300
C          0.24833        0.94919        2.35495
N         -1.07435        0.64666        2.40080
C         -1.73812       -0.65701        2.60090
C         -3.19687       -0.49397        2.15696
C         -4.15143       -1.65452        2.47426
C         -4.39865       -2.73469        1.34709
C         -3.20474       -3.57814        0.75437
C         -2.35213       -4.54899        1.66004
C         -2.97360       -5.81236        2.37924
C         -3.66140       -6.97963        1.56545
C         -2.87695       -7.78049        0.44674
C         -1.54620       -8.52882        0.83421
F         -1.71284       -9.28381        1.93017
F         -1.18970       -9.31665       -0.19252
F         -0.54271       -7.65166        1.05835
F         -3.74642       -8.72719        0.01448
F         -2.59694       -6.94342       -0.58336
F         -4.06214       -7.87390        2.50313
F         -4.76389       -6.46633        0.96243
F         -1.94058       -6.35551        3.08515
F         -3.89721       -5.36876        3.26433
F         -1.32258       -4.97273        0.88571
F         -1.82824       -3.79130        2.66878
F         -3.68874       -4.27857       -0.28975
F         -2.29419       -2.66827        0.25907
F         -5.34738       -3.59424        1.78212
F         -4.89533       -2.04976        0.27360
F         -3.80030       -2.28928        3.63379
F         -5.39807       -1.11913        2.67976
N          1.18366        0.25021        1.69605
C          2.59410        0.53088        2.05268
C          0.89125       -0.63650        0.56855
C          1.45282       -2.05353        0.73714
O          0.88967       -2.68720        1.90969
C          1.74155       -2.91755        2.95944
O          2.87952       -2.50283        3.01444
C          1.07367       -3.73887        4.03568
S          0.10872       -2.68665        5.18575
C          1.10817       -2.92136       -0.46370
O          1.76139       -4.18134       -0.25208
C          1.32666       -5.20903       -1.04821
O          0.43801       -5.09212       -1.86312
C          2.11701       -6.46635       -0.78023
S          3.68425       -6.46083       -1.73058
C          5.16611        2.13597        0.75736
H          1.37484        2.60809       -1.48911
H          3.56392        2.65899       -1.36843
H          3.20046        1.04867       -0.72409
H          3.64333        3.65040        0.82457
H          3.71762        2.12568        2.86682
H          1.38435        3.42525        1.55148
H          2.01773        3.62905        3.20398
H          0.04105        2.48244        3.66884
H         -1.64390        1.43759        2.69299
H         -1.67808       -0.94225        3.66067
H         -1.21185       -1.43076        2.03914
H         -3.26127       -0.26464        1.08496
H         -3.63769        0.36240        2.69259
H          3.22319       -0.03465        1.35748
H          2.77179        0.09554        3.04490
H          1.33004       -0.18716       -0.33643
H         -0.19300       -0.65729        0.41261
H          2.54414       -2.02363        0.86931
H          1.83849       -4.28858        4.59316
H          0.35058       -4.43996        3.60621
H          1.17729       -2.12809        5.80164
H          1.48152       -2.45786       -1.39179
H          0.02518       -3.07222       -0.56611
H          1.51206       -7.33973       -1.04345
H          2.41672       -6.52587        0.27272
H          3.10829       -6.57863       -2.95023
H          5.28949        1.04226        0.74242
H          5.68892        2.51705        1.64419
H          5.68045        2.53415       -0.12752
