69

C          1.49281        0.81830       -1.70088
C          1.31523       -0.55915       -1.09514
O          2.43359       -1.42976       -1.47079
P          2.30665       -2.56282       -2.59043
O          1.12340       -2.34638       -3.49611
C          3.93811       -2.52841       -3.38796
C          4.24924       -1.24395       -4.19244
C          3.83127       -1.26089       -5.66946
N          2.37241       -1.43868       -5.79825
C          1.76615       -2.24256       -6.68983
N          0.73126       -3.02655       -6.33833
C          0.02424       -3.53519       -7.52342
C          1.13749       -3.37394       -8.59444
N          2.03345       -2.36195       -8.00037
C          2.86566       -1.48567       -8.80974
C         -1.23906       -2.71601       -7.82086
C         -2.01277       -3.22807       -9.04178
C         -2.96050       -2.15275       -9.59168
S         -3.35977       -2.34918      -11.34628
C         -1.89092       -1.69534      -12.13980
S         -0.57476       -1.09244      -11.28257
N         -1.95688       -1.72380      -13.48824
C         -3.13418       -2.20620      -14.23156
C         -3.05751       -3.69133      -14.59419
C         -0.83186       -1.25279      -14.31467
C         -0.95111        0.22485      -14.68937
O          2.33911       -3.98560       -1.87877
C          1.14938       -4.59005       -1.26670
C          1.04237       -4.24835        0.20721
H          0.68534        1.47951       -1.35665
H          1.44859        0.77682       -2.79790
H          2.44991        1.26225       -1.39740
H          0.37301       -1.02139       -1.41992
H          1.33897       -0.52707        0.00212
H          4.01267       -3.43069       -4.01364
H          4.66835       -2.65036       -2.57520
H          5.33544       -1.07719       -4.17429
H          3.80833       -0.36556       -3.69452
H          4.34668       -2.07787       -6.19864
H          4.14663       -0.31456       -6.13323
H          1.87275       -1.48387       -4.89356
H          0.42355       -3.07001       -5.36614
H         -0.22129       -4.59660       -7.37892
H          0.74226       -2.99737       -9.54911
H          1.68664       -4.31143       -8.77462
H          3.81766       -1.96529       -9.08118
H          3.06833       -0.55686       -8.26597
H          2.32214       -1.23356       -9.73051
H         -0.93347       -1.67183       -8.00130
H         -1.87903       -2.70822       -6.92427
H         -2.57157       -4.14436       -8.79829
H         -1.30253       -3.49073       -9.83811
H         -2.51857       -1.15204       -9.48240
H         -3.93937       -2.16155       -9.09080
H         -3.20874       -1.59184      -15.14028
H         -4.03587       -1.99084      -13.64085
H         -2.17483       -3.90945      -15.21042
H         -3.94808       -3.97818      -15.16945
H         -3.01591       -4.31789      -13.69434
H         -0.81366       -1.88447      -15.21514
H          0.09030       -1.43320      -13.74883
H         -1.88334        0.43307      -15.23249
H         -0.11371        0.51178      -15.33974
H         -0.92230        0.85444      -13.79127
H          1.28949       -5.66756       -1.41766
H          0.26259       -4.27232       -1.83477
H          1.95802       -4.53016        0.74231
H          0.20391       -4.80625        0.64728
H          0.85714       -3.17912        0.37091
