48

N          2.11738        1.37406        1.41060
C          2.54241        0.42309        2.45477
C          3.82270       -0.31480        2.05733
C          4.98621        0.60704        1.61127
C          5.36540        1.58879        2.65861
N          6.04040        1.29552        3.78887
N          6.18059        2.40855        4.48362
N          5.61712        3.38677        3.81071
N          5.07288        2.90884        2.66256
C          4.45683        3.75444        1.61953
C          5.50222        4.24995        0.61504
C          4.89146        5.20983       -0.41148
C          5.92084        5.69442       -1.43895
C          5.34765        6.68715       -2.45656
C          6.38210        7.14727       -3.48632
C          5.47975        4.75721        4.31498
C          4.15137        4.96696        5.05828
C          3.82340        6.47028        5.18470
C          3.66004        7.10271        3.88128
C          3.53940        7.58818        2.77864
H          1.26677        1.85561        1.70725
H          1.85960        0.86683        0.56034
H          1.77745       -0.33361        2.70408
H          2.71343        0.99974        3.37931
H          3.61966       -1.00076        1.22047
H          4.15313       -0.93927        2.89954
H          4.72131        1.13561        0.68775
H          5.87388       -0.00768        1.40628
H          3.95447        4.59063        2.12474
H          3.67309        3.11942        1.17172
H          5.95569        3.38554        0.10399
H          6.32044        4.75751        1.15313
H          4.45630        6.07593        0.11580
H          4.05455        4.71337       -0.93134
H          6.33910        4.82405       -1.97364
H          6.77033        6.16303       -0.91190
H          4.94247        7.56274       -1.92151
H          4.49063        6.22401       -2.97364
H          7.23449        7.64665       -3.00269
H          5.94497        7.85696       -4.20084
H          6.77855        6.29848       -4.06250
H          5.56890        5.43926        3.45826
H          6.34770        4.90509        4.96868
H          4.20704        4.50347        6.05250
H          3.33553        4.47276        4.50956
H          4.61111        6.99017        5.75490
H          2.89825        6.58227        5.77062
H          3.40774        8.07254        1.83293
