81

C          4.28090      -11.11463        0.67470
C          3.58623      -10.36534       -0.44299
O          4.40186       -9.22987       -0.82061
C          3.82761       -8.43972       -1.83985
C          4.74069       -7.23480       -2.05042
S          6.49634       -7.75391       -1.98965
C          6.61846       -8.92446       -3.39722
C          8.02437       -9.50666       -3.57977
C          8.65729      -10.13935       -2.32957
C          7.80252      -11.24352       -1.70403
S          8.55641      -11.96501       -0.23253
O          7.62656      -12.91454        0.34079
O          9.92007      -12.30486       -0.53922
O          8.58822      -10.65798        0.74781
C          7.34297       -6.26010       -2.60298
C          8.80673       -6.24905       -2.15001
O          9.38277       -5.12962       -2.78334
C         10.82340       -5.13749       -2.75548
C         11.38653       -6.00863       -3.87983
O         12.73721       -6.27275       -3.55182
C         13.43942       -7.13982       -4.36704
C         12.92316       -7.72884       -5.52663
C         13.72552       -8.59974       -6.26705
C         15.04426       -8.90132       -5.89780
C         15.52711       -8.30074       -4.72318
C         14.74552       -7.43185       -3.96547
C         15.89432       -9.84342       -6.76128
C         16.03105       -9.31890       -8.22942
C         16.66450       -7.95228       -8.63277
C         18.14808       -7.82380       -8.23392
C         16.58282       -7.90817      -10.17501
C         15.89435       -6.73635       -8.08058
C         17.26611      -10.13962       -6.12507
C         15.15677      -11.20526       -6.85749
H          3.64588      -11.94537        1.00960
H          4.45708      -10.45575        1.53511
H          5.23749      -11.54564        0.35104
H          2.59767       -9.99427       -0.11959
H          3.43307      -11.00983       -1.32822
H          2.82513       -8.06427       -1.55814
H          3.70491       -9.01323       -2.77973
H          4.66188       -6.52123       -1.21800
H          4.54624       -6.72053       -3.00100
H          6.26246       -8.40129       -4.29521
H          5.89345       -9.70533       -3.12984
H          8.70146       -8.73930       -3.98352
H          7.92807      -10.26245       -4.37624
H          8.85715       -9.36627       -1.57030
H          9.63753      -10.55043       -2.60681
H          7.66932      -12.10019       -2.38223
H          6.81126      -10.90063       -1.37509
H          8.02066      -10.86915        1.51400
H          6.80084       -5.40400       -2.17674
H          7.26159       -6.22183       -3.69808
H          9.31230       -7.18747       -2.44162
H          8.86836       -6.17004       -1.04702
H         11.19621       -5.50026       -1.78251
H         11.12842       -4.09028       -2.86994
H         11.29669       -5.49460       -4.85301
H         10.81417       -6.95629       -3.94867
H         11.91534       -7.50762       -5.87689
H         13.30346       -9.03135       -7.17565
H         16.54255       -8.50158       -4.38514
H         15.13676       -6.97020       -3.05852
H         15.01852       -9.33037       -8.66798
H         16.58784      -10.10030       -8.77541
H         18.72760       -8.71232       -8.52463
H         18.27586       -7.67142       -7.15458
H         18.59807       -6.95513       -8.73678
H         17.14644       -8.73613      -10.63014
H         17.00050       -6.96663      -10.56009
H         15.54119       -7.98040      -10.52241
H         15.96610       -6.65638       -6.98877
H         14.82714       -6.78035       -8.34282
H         16.30509       -5.81011       -8.50971
H         17.85950       -9.24128       -5.92417
H         17.85657      -10.77450       -6.79971
H         17.14881      -10.68544       -5.17765
H         14.18091      -11.11121       -7.35328
H         14.98906      -11.62384       -5.85504
H         15.75504      -11.92555       -7.43389
