80

C         13.94844      -17.71817        1.13329
C         14.32179      -16.39521        0.46016
C         13.10461      -15.54428        0.08109
C         13.46494      -14.21151       -0.58331
C         12.24498      -13.35011       -0.92625
C         12.59982      -12.01107       -1.58163
C         11.37986      -11.13278       -1.87943
C         11.73621       -9.79906       -2.54451
C         10.51662       -8.91108       -2.82439
C         10.85724       -7.54246       -3.38768
O         11.47708       -7.72176       -4.68882
C         11.93919       -6.54630       -5.29568
N         13.13964       -5.99268       -4.64643
C         14.30391       -6.67378       -4.53299
N         15.45879       -6.09141       -4.15482
Si        17.03990       -7.03246       -3.98782
C         16.73412       -8.56366       -2.93108
C         17.60865       -7.46232       -5.71890
C         18.26062       -5.92650       -3.10378
C         15.53201       -4.61340       -4.00789
C         16.04644       -3.87129       -5.25435
C         15.18538       -4.00393       -6.51848
C         13.85323       -3.24224       -6.46798
C         12.83952       -3.70587       -7.51872
C         11.42837       -3.15408       -7.29768
C         10.38575       -3.70824       -8.27478
C          8.97307       -3.18188       -8.01237
N         14.24152       -7.99191       -4.82436
H         14.84096      -18.30213        1.39674
H         13.32816      -18.34175        0.47252
H         13.37763      -17.54929        2.05833
H         14.92043      -16.59721       -0.44443
H         14.97592      -15.81229        1.13072
H         12.50354      -15.34838        0.98653
H         12.45041      -16.12404       -0.59363
H         14.04684      -14.40649       -1.50173
H         14.13602      -13.64223        0.08438
H         11.66472      -13.16080       -0.00640
H         11.57296      -13.91582       -1.59470
H         13.15326      -12.20020       -2.51934
H         13.29490      -11.45775       -0.92470
H         10.83380      -10.93637       -0.94078
H         10.67816      -11.68592       -2.52700
H         12.26543      -10.00992       -3.49028
H         12.44908       -9.24893       -1.90337
H          9.95639       -8.74672       -1.88951
H          9.82441       -9.42067       -3.51328
H         11.55650       -7.00574       -2.72180
H          9.95324       -6.92293       -3.51857
H         11.18783       -5.73979       -5.28539
H         12.16530       -6.81854       -6.33791
H         13.16274       -4.98836       -4.51875
H         16.39437       -9.45809       -3.47285
H         16.03184       -8.36693       -2.10978
H         17.69807       -8.83831       -2.47712
H         16.86695       -8.05007       -6.27647
H         18.53387       -8.05445       -5.67064
H         17.82197       -6.55507       -6.29989
H         17.93003       -5.65581       -2.09191
H         18.50969       -5.01022       -3.65334
H         19.19187       -6.50286       -2.99679
H         16.20439       -4.41029       -3.16623
H         14.55977       -4.22026       -3.67649
H         17.06823       -4.21864       -5.47125
H         16.14644       -2.80965       -4.97496
H         14.99665       -5.07212       -6.72416
H         15.77030       -3.64832       -7.37975
H         14.04211       -2.16152       -6.57311
H         13.38907       -3.33475       -5.46596
H         12.80284       -4.81028       -7.52140
H         13.19771       -3.42774       -8.52388
H         11.44650       -2.05303       -7.36302
H         11.10801       -3.38003       -6.26220
H         10.38618       -4.81109       -8.21872
H         10.68844       -3.46135       -9.30571
H          8.62805       -3.44335       -7.00042
H          8.25055       -3.59991       -8.72545
H          8.93049       -2.08663       -8.10118
H         13.31074       -8.41657       -4.78660
H         15.02584       -8.58783       -4.59021
