30

C          1.08787       -0.28525       -0.61671
C          2.38811       -0.25238       -0.33425
N          2.92607       -0.85647        0.85037
C          2.63091       -2.14089        1.30223
N          3.41289       -2.51403        2.27052
N          4.23335       -1.43671        2.46846
C          3.96409       -0.40299        1.63202
N          4.58670        0.77999        1.59923
C          5.94881        0.89952        2.16094
C          7.02850        0.05692        1.45341
C          7.28756        0.33163       -0.03048
C          7.78424        1.76682       -0.41261
Br         9.37144        2.31799        0.58082
F          8.01902        1.84861       -1.73003
F          6.77756        2.65510       -0.13117
Br         8.57800       -0.98314       -0.68971
F          6.10434        0.15303       -0.74452
C          3.94410        1.99207        1.06407
H          0.73325        0.11432       -1.56457
H          0.34633       -0.70308        0.06483
H          3.14451        0.16611       -0.99767
H          1.85528       -2.75419        0.85647
H          4.90259       -1.46134        3.23036
H          5.94131        0.62324        3.22937
H          6.19875        1.96488        2.13232
H          6.79502       -1.01517        1.52080
H          7.97061        0.20018        1.99925
H          2.85887        1.85665        1.02538
H          4.32489        2.24605        0.06727
H          4.15784        2.82107        1.75026
