46

C          1.49155        0.75996       -0.67098
C          2.99605        1.01175       -0.52879
C          3.36169        1.30361        0.91653
O          4.82830        1.42878        1.06912
C          5.34581        2.64949        1.03188
O          4.74748        3.70554        0.91078
C          6.87195        2.59698        1.16938
P          7.53480        4.29281        1.11468
C          6.99328        5.21318        2.59851
C          7.57333        6.62008        2.81648
C          7.23087        7.61942        1.72131
F          5.89894        7.68911        1.49416
F          7.67611        8.84964        2.02784
F          7.81938        7.25498        0.53169
C          9.34845        4.26029        0.95570
C          9.80834        3.58627       -0.34515
O          9.04287        4.14373       -1.39366
C          9.50032        3.77185       -2.70617
C          8.66759        4.54169       -3.72404
O          9.12120        4.14778       -5.00061
C          8.46808        4.84952       -6.05522
H          1.23510        0.54689       -1.71601
H          0.90403        1.63338       -0.35537
H          1.16947       -0.10043       -0.06771
H          3.29746        1.86282       -1.15851
H          3.56155        0.13223       -0.87161
H          3.10500        0.46846        1.58003
H          2.89820        2.22860        1.28237
H          7.31004        2.01866        0.34195
H          7.16927        2.09908        2.10435
H          7.00057        4.90792       -0.02845
H          7.24705        4.58038        3.46268
H          5.89629        5.24305        2.52222
H          8.66607        6.61067        2.92549
H          7.15995        7.01764        3.75359
H          9.77459        3.75988        1.83770
H          9.66999        5.31224        0.96513
H          9.68162        2.48663       -0.29149
H         10.88749        3.78435       -0.48130
H          9.38634        2.68450       -2.86072
H         10.56758        4.02961       -2.81850
H          8.79746        5.63102       -3.56789
H          7.59094        4.30939       -3.59026
H          8.89581        4.48000       -6.99405
H          8.64152        5.93774       -5.98001
H          7.37983        4.65905       -6.05184
