90

C          0.48224        0.51516       -0.27449
C          2.00711        0.39797       -0.22487
C          2.58782        0.63677        1.17245
C          4.11303        0.51355        1.23381
C          4.69257        0.74113        2.63316
C          6.21833        0.62260        2.69428
C          6.79543        0.85103        4.09450
C          8.32292        0.75619        4.15456
C          8.89608        1.00202        5.55324
C         10.42511        0.93926        5.61507
C         10.98874        1.21502        7.01199
C         12.51868        1.19428        7.07924
C         13.06861        1.52714        8.46932
C         14.59801        1.57673        8.53381
C         15.13689        2.00721        9.90184
C         16.66055        2.16131        9.94097
C         17.18214        2.74789       11.25749
C         18.70091        2.98332       11.31120
C         19.27036        3.93689       10.24428
C         18.67081        5.35027       10.33996
C         19.25926        6.42536        9.38747
C         20.76990        6.67625        9.66661
C         21.07498        8.13049        9.28488
N         19.70930        8.77883        9.06123
C         18.62524        7.84088        9.61081
C         18.30250        8.22196       11.05595
C         17.64785        9.60482       11.18808
C         17.34843        9.95056       12.64321
F         16.53277        9.02912       13.21250
F         18.49309        9.99209       13.37940
F         16.75142       11.15586       12.73870
C         19.05993        6.01265        7.89292
C         17.66525        5.45813        7.48268
F         16.68834        6.35103        7.86539
F         17.62398        5.33265        6.13730
F         19.31477        7.11529        7.06414
F         19.97202        5.06632        7.53322
H          0.09639        0.34167       -1.28858
H          0.14945        1.51503        0.04194
H          0.00525       -0.21771        0.39321
H          2.45595        1.11734       -0.93068
H          2.31246       -0.60173       -0.57725
H          2.13521       -0.07989        1.88052
H          2.28725        1.63945        1.52475
H          4.56509        1.23530        0.53061
H          4.41224       -0.48659        0.87393
H          4.24265        0.01716        3.33521
H          4.39047        1.73987        2.99478
H          6.66769        1.34800        1.99312
H          6.52209       -0.37537        2.33237
H          6.35664        0.11764        4.79372
H          6.47884        1.84373        4.46056
H          8.75973        1.48563        3.44962
H          8.64266       -0.23833        3.79722
H          8.47203        0.26401        6.25651
H          8.55970        1.99018        5.91407
H         10.84727        1.67006        4.90245
H         10.76667       -0.05211        5.26962
H         10.58162        0.47550        7.72340
H         10.62618        2.19885        7.35945
H         12.92254        1.91708        6.34779
H         12.88921        0.20404        6.76231
H         12.69433        0.78947        9.19985
H         12.66371        2.50306        8.79153
H         14.96501        2.28059        7.76397
H         15.01413        0.59113        8.26335
H         14.82157        1.28316       10.67179
H         14.67089        2.96846       10.18398
H         16.96117        2.80390        9.09228
H         17.14299        1.18713        9.75196
H         16.91394        2.06909       12.08210
H         16.64278        3.68701       11.47341
H         19.21963        2.01785       11.20370
H         18.97060        3.36210       12.31104
H         19.10923        3.50585        9.24621
H         20.36278        3.99065       10.37127
H         18.83165        5.70630       11.36861
H         17.57895        5.30729       10.20329
H         21.40947        5.97912        9.11599
H         20.95695        6.51564       10.73583
H         21.64028        8.23159        8.35288
H         21.59174        8.68678       10.07412
H         19.55566        8.88287        8.05070
H         19.64792        9.70909        9.49169
H         17.73892        7.99219        8.98213
H         19.20146        8.16379       11.68977
H         17.59939        7.47459       11.44505
H         16.69650        9.64675       10.63842
H         18.27906       10.42984       10.81799
H         17.45770        4.48266        7.94897
