66

C          8.30649       13.33653      -11.89313
C          8.26794       11.93511      -11.28037
C          8.11190       11.94915       -9.75650
C          8.02950       10.55221       -9.13408
C          7.99834       10.56678       -7.60300
C          7.85164        9.17324       -6.98232
C          8.02915        9.18161       -5.46013
C          7.75230        7.85201       -4.77650
O          8.53351        6.74247       -5.36161
C          9.79824        6.61215       -4.97689
O         10.41703        7.32104       -4.20499
C         10.41848        5.35210       -5.60610
N         11.88274        5.47030       -5.64911
C         12.60295        5.44017       -4.49714
N         12.40158        4.46001       -3.58477
C         11.84258        3.14169       -3.81652
O         10.51512        3.13647       -3.32625
C          9.90778        1.88734       -3.12245
C         10.37682        0.73138       -3.75242
C          9.74157       -0.50224       -3.54374
C         10.22659       -1.74728       -4.24052
C          8.63378       -0.52986       -2.68912
C          8.17761        0.63447       -2.06850
C          8.79494        1.87785       -2.25962
C          8.29849        3.15566       -1.59666
C          7.38960        3.95340       -2.55479
C          7.58488        2.91553       -0.25954
N         13.58786        6.31392       -4.26618
I         12.58908        6.61362       -7.24904
H          8.43950       13.29663      -12.98264
H          9.13403       13.93078      -11.47766
H          7.37358       13.88345      -11.69165
H          9.19142       11.39088      -11.54270
H          7.43973       11.35902      -11.72616
H          7.20609       12.52017       -9.48759
H          8.95909       12.50017       -9.31086
H          8.89428        9.95174       -9.47016
H          7.13391       10.03322       -9.51777
H          7.17093       11.20851       -7.25489
H          8.92388       11.03869       -7.22865
H          8.59588        8.49589       -7.43451
H          6.86397        8.75527       -7.24179
H          7.32903        9.90408       -5.00635
H          9.03934        9.53018       -5.19607
H          6.71717        7.52303       -4.92921
H          7.97762        7.89131       -3.70270
H         10.03855        5.16634       -6.61604
H         10.12964        4.50092       -4.96859
H         12.64809        4.68434       -2.62379
H         12.45382        2.40286       -3.27218
H         11.89977        2.93002       -4.89725
H         11.23497        0.76699       -4.42582
H         11.24482       -1.62412       -4.63170
H          9.57290       -2.00247       -5.08858
H         10.22363       -2.60994       -3.56090
H          8.12217       -1.47516       -2.49994
H          7.31940        0.56940       -1.39921
H          9.18607        3.77664       -1.39207
H          6.47737        3.38428       -2.78498
H          7.89298        4.17496       -3.50580
H          7.08729        4.90577       -2.09526
H          6.62683        2.39316       -0.39390
H          7.36103        3.87697        0.22247
H          8.20097        2.32412        0.43120
H         13.56414        7.23239       -4.69961
H         14.28491        6.13509       -3.55203
