31

N          4.08502       -0.62278       -6.36581
C          3.25574        0.46358       -5.81656
C          3.03564        0.23141       -4.30818
N          4.31290       -0.21803       -3.75267
C          4.89260        0.21558       -2.64506
N          4.15343        0.82337       -1.66627
I          2.57388       -0.15591       -0.74551
N          6.22762        0.12756       -2.46998
C          7.23030       -0.27988       -3.46570
C          7.38245        0.60323       -4.71452
C          7.68630        2.09204       -4.46724
S          6.21864        3.11500       -4.71480
O          5.76650        2.95005       -6.08299
O          5.30595        2.91202       -3.61309
O          6.82380        4.59896       -4.53759
H          4.54925       -0.31984       -7.22092
H          3.52314       -1.43942       -6.61162
H          2.27204        0.56796       -6.30143
H          3.79969        1.40595       -5.95980
H          2.26700       -0.53784       -4.13230
H          2.72288        1.15806       -3.81239
H          4.85071       -0.71864       -4.47763
H          4.69983        1.33936       -0.97956
H          6.55000        0.19938       -1.51131
H          7.03308       -1.31643       -3.78665
H          8.18116       -0.30442       -2.91763
H          6.51412        0.50288       -5.38147
H          8.22102        0.17046       -5.27848
H          8.42088        2.47089       -5.18884
H          8.05328        2.30802       -3.45481
H          6.91195        5.00533       -5.42249
