43

F          4.57691       -2.92323       -3.77325
C          4.09864       -3.79921       -2.76671
C          4.84526       -3.52852       -1.46433
C          4.68201       -2.12342       -0.99182
N          4.57766       -1.05036       -1.78002
N          4.51592        0.11669       -1.09518
C          4.58841       -0.24577        0.16632
N          4.69003       -1.62885        0.27360
C          4.71405       -2.41716        1.51902
C          3.31748       -2.91660        1.92320
O          2.88637       -3.72956        0.83291
C          1.46633       -3.99965        0.77260
C          1.14286       -4.42669       -0.63368
C          1.49001       -5.71073       -1.08267
C          1.23060       -6.09453       -2.40038
C          0.61171       -5.20125       -3.28191
C          0.25527       -3.92297       -2.84190
C          0.52522       -3.53742       -1.52479
C          3.38744       -3.66015        3.25531
C          4.63078        0.74185        1.29501
C          3.55691        0.60612        2.27360
C          2.67907        0.51910        3.09906
H          4.27995       -4.82568       -3.10735
H          3.02003       -3.62402       -2.66616
H          5.92180       -3.72764       -1.60138
H          4.45614       -4.21063       -0.69788
H          4.55685       -1.07331       -2.80108
H          5.13594       -1.78148        2.30538
H          5.39313       -3.26686        1.36847
H          2.64434       -2.04467        2.01508
H          0.90890       -3.08513        1.03991
H          1.20669       -4.78954        1.49757
H          1.95678       -6.41641       -0.39210
H          1.49630       -7.09751       -2.73664
H          0.39464       -5.50635       -4.30608
H         -0.24063       -3.22911       -3.52132
H          0.23795       -2.54127       -1.18068
H          4.06088       -4.52614        3.18985
H          2.39347       -4.02077        3.54722
H          3.74219       -2.99522        4.05501
H          4.59493        1.73748        0.82685
H          5.61154        0.67329        1.79892
H          1.90353        0.46562        3.83587
