40

O          8.77796       -3.11267       -6.14062
C          8.55464       -2.83435       -7.53087
C          7.09411       -2.45049       -7.72526
O          6.63492       -1.39091       -6.87651
C          7.18628       -0.12107       -7.10904
O          6.67357        0.76977       -6.12664
C          6.77410        0.32911       -4.80359
N          8.17844        0.43343       -4.29192
C          9.03342       -0.59713       -4.36780
N         10.24565       -0.17155       -3.96900
C         10.17607        1.17782       -3.61680
C          8.87111        1.57064       -3.82428
N          8.31601        2.83247       -3.72342
N          9.16282        3.88119       -3.31983
N          7.00172        2.87292       -3.20778
C         11.39823       -1.05575       -3.93782
O         11.30912       -2.20351       -4.29671
O         12.44176       -0.38227       -3.48369
C         13.70424       -1.14850       -3.33585
C         13.81683       -1.70836       -1.93483
H          9.65770       -3.51017       -6.03836
H          8.74399       -3.72606       -8.15190
H          9.23304       -2.03603       -7.88214
H          6.45023       -3.30026       -7.46424
H          6.92664       -2.20003       -8.78866
H          6.86633        0.30636       -8.07483
H          8.29598       -0.14503       -7.06519
H          6.48952       -0.72426       -4.68830
H          6.16318        0.99503       -4.19041
H          8.80947       -1.59538       -4.76160
H         11.04662        1.71978       -3.27778
H          9.74284        4.18719       -4.10193
H          9.74911        3.62913       -2.51570
H          6.53998        3.68424       -3.62386
H          7.03491        3.02490       -2.19236
H         14.47504       -0.40068       -3.55280
H         13.71205       -1.92935       -4.10530
H         13.77113       -0.91179       -1.18134
H         14.78670       -2.21477       -1.83458
H         13.03024       -2.44634       -1.73190
