68

C          0.72075       -0.80929        1.41266
O          1.99570       -1.12874        0.83375
C          3.04364       -1.23174        1.78654
C          4.31280       -1.57722        1.01030
N          3.92645       -2.78957        0.14794
C          4.72349       -2.75584       -1.14631
C          5.72511       -1.60779       -0.96924
C          4.88903       -0.62245       -0.06609
C          5.38183        0.81668        0.32465
C          6.58626        0.81820        1.29580
C          7.08211        2.21031        1.78812
C          6.82879        2.40224        3.29019
C          8.56645        2.40908        1.44942
C          5.66320        1.60288       -0.99537
O          6.61481        1.05547       -1.89693
C          4.19820        1.60026        0.94964
C          7.17895       -2.12720       -0.71915
C          7.69961       -2.91044        0.57029
C          7.28560       -4.40060        0.92262
C          7.52196       -5.63864       -0.03680
C          8.96259       -6.01628       -0.57351
C         10.14182       -6.39132        0.41443
C         10.03458       -7.61267        1.41607
C          9.74049       -9.04828        0.84103
F         10.56933       -9.33694       -0.17451
F          9.92170       -9.94188        1.82515
F          8.46742       -9.13982        0.41006
F         11.23999       -7.66817        2.03329
F          9.08488       -7.33087        2.34688
F         11.21153       -6.60879       -0.38699
F         10.39654       -5.29851        1.18340
F          8.76816       -7.06683       -1.40879
F          9.40726       -4.96490       -1.30774
F          7.01681       -6.70267        0.63117
F          6.74709       -5.44693       -1.14549
F          7.86209       -4.67357        2.10651
F          5.91218       -4.39700        1.13960
F          9.04768       -2.89789        0.51740
F          7.31689       -2.18695        1.67202
F          7.45733       -2.94146       -1.79174
F          8.04118       -1.07358       -0.80300
H          0.00077       -0.78640        0.58844
H          0.75494        0.17748        1.89984
H          0.41793       -1.57178        2.14892
H          2.82757       -2.03810        2.51644
H          3.17753       -0.30329        2.35827
H          5.08792       -1.90128        1.71375
H          2.91141       -2.67000       -0.02771
H          4.08156       -3.66820        0.65181
H          4.02286       -2.53540       -1.95836
H          5.16294       -3.74072       -1.32382
H          5.88074       -1.10718       -1.93475
H          4.03124       -0.40419       -0.73106
H          7.42930        0.29774        0.83044
H          6.31822        0.21355        2.17721
H          6.52232        3.00037        1.26130
H          7.37935        1.65289        3.87984
H          5.76247        2.30813        3.54047
H          7.15890        3.39507        3.62480
H          9.18977        1.64355        1.93636
H          8.92537        3.39233        1.78334
H          8.74894        2.34476        0.36565
H          5.93339        2.63590       -0.72247
H          4.72284        1.66142       -1.56690
H          7.50917        1.23804       -1.57040
H          4.06950        1.38469        2.01663
H          3.25088        1.40306        0.42823
H          4.38428        2.67991        0.87925
