83

C         -1.02054       -1.99725       -1.22682
C         -0.60654       -2.11833        0.24238
C         -0.22599       -0.76779        0.85826
C          0.25778       -0.88882        2.30815
N          0.69663        0.41850        2.83484
C         -0.15723        1.19977        3.52470
S         -1.64549        0.73043        4.11668
S          0.45736        2.90606        3.67884
C         -0.48249        3.57798        5.08696
C         -0.61099        5.10029        4.96707
C         -1.49914        5.62959        3.83069
N         -2.91548        5.19711        3.93329
C         -3.40556        4.11655        3.21646
N         -4.67577        3.76150        3.38710
C         -5.27820        2.49907        2.97130
C         -5.95021        2.54000        1.59593
O         -4.94135        2.31607        0.57986
C         -4.73803        3.30744       -0.34737
O         -5.19270        4.42470       -0.26259
C         -3.87958        2.79388       -1.48293
S         -2.29219        2.04664       -0.95774
C         -6.98711        1.41875        1.47943
O         -7.48986        1.28440        0.14152
C         -8.39825        2.22820       -0.25462
O         -8.81044        3.11180        0.46572
C         -8.78368        2.02824       -1.70125
S         -7.48195        2.65651       -2.82769
N         -2.59510        3.49683        2.34820
C         -3.73552        5.89236        4.81148
N         -5.00774        5.73458        5.05224
N         -5.36205        6.69364        6.00250
C         -4.27352        7.36551        6.25946
O         -3.17863        6.90325        5.52755
S         -3.97282        8.68997        7.32309
C         -5.66298        8.92617        8.00486
C         -5.60217       10.04364        9.04229
C          2.09925        0.79205        2.53712
C          3.04670        0.61799        3.73360
C          3.09917       -0.79588        4.32507
C          4.06347       -0.90056        5.50942
H         -1.29611       -2.97382       -1.64597
H         -0.20168       -1.59213       -1.83948
H         -1.88305       -1.32563       -1.34706
H          0.24543       -2.81335        0.32840
H         -1.42612       -2.56823        0.82625
H         -1.09072       -0.08566        0.83156
H          0.56267       -0.29782        0.24573
H          1.11338       -1.57435        2.37798
H         -0.53860       -1.26627        2.96056
H          0.06026        3.32138        6.00560
H         -1.44926        3.04805        5.11447
H          0.38069        5.56151        4.83678
H         -0.98868        5.48081        5.92781
H         -1.13277        5.32747        2.84307
H         -1.49562        6.72562        3.84084
H         -5.23510        4.39809        3.99517
H         -6.03154        2.25970        3.73511
H         -4.52207        1.69884        3.00036
H         -6.41437        3.51985        1.41936
H         -3.70451        3.60396       -2.19661
H         -4.43268        1.99167       -1.99088
H         -1.60708        3.20948       -0.85363
H         -7.81405        1.62309        2.17577
H         -6.53825        0.44242        1.70579
H         -9.73335        2.53549       -1.89698
H         -8.87282        0.96093       -1.93820
H         -7.57951        3.95497       -2.45345
H         -1.58832        3.42165        2.53884
H         -2.97368        2.72737        1.79702
H         -5.98269        7.97200        8.44127
H         -6.32813        9.17278        7.16807
H         -4.93422        9.79055        9.87627
H         -6.60770       10.20186        9.45387
H         -5.26795       10.99312        8.60308
H          2.13985        1.82414        2.16145
H          2.41403        0.14978        1.70339
H          2.76715        1.33655        4.52051
H          4.05117        0.91771        3.39107
H          3.39783       -1.51397        3.54241
H          2.09093       -1.09581        4.65403
H          5.09122       -0.64275        5.21525
H          4.08070       -1.91917        5.91860
H          3.77059       -0.22112        6.32329
