107

C          0.01006        0.85364        0.26839
C          1.47132        1.30777        0.30143
C          2.20559        1.08461       -1.02530
C          3.66191        1.55911       -1.01330
C          4.41660        1.25454       -2.31147
C          5.85818        1.77317       -2.31640
C          6.65292        1.37130       -3.56318
C          8.06635        1.96131       -3.59699
C          8.92005        1.44890       -4.76148
C         10.29421        2.12709       -4.83185
C         11.21302        1.46394       -5.87204
C         12.55999        2.18299       -6.14291
C         13.42586        2.19423       -4.87152
C         14.74287        2.98221       -4.79899
C         15.44909        2.74603       -3.45886
C         16.83452        3.39124       -3.36684
C         17.51837        3.14520       -2.01809
C         18.96149        3.65377       -1.95152
C         19.60494        3.45549       -0.57562
C         21.08038        3.86301       -0.51472
C         21.68588        3.71859        0.88497
C         23.18247        4.04004        0.95040
C         23.75365        3.93167        2.36686
C         25.26703        4.18107        2.42242
N         25.80656        4.11599        3.77262
C         25.93111        5.18575        4.63307
C         26.35965        4.70821        5.85867
C         26.49078        3.29639        5.73929
C         26.13826        2.95890        4.44458
C         12.23869        3.60471       -6.71022
N         13.24462        4.28293       -7.50279
C         13.71602        3.46468       -8.60118
C         14.26044        2.11304       -8.14600
N         13.23151        1.37104       -7.32131
C         13.67399       -0.06632       -6.98872
C         13.34763       -0.92676       -8.21672
O         12.03049       -0.56470       -8.64110
C         15.13329       -0.21543       -6.54281
C         15.38091       -1.54669       -5.82083
H         -0.48201        1.00680        1.23863
H         -0.07096       -0.21549        0.02061
H         -0.56467        1.41067       -0.48680
H          2.00650        0.77228        1.10422
H          1.51982        2.37701        0.56919
H          1.66012        1.60157       -1.83480
H          2.17347        0.01027       -1.28043
H          4.19305        1.08628       -0.16814
H          3.69090        2.64551       -0.81712
H          3.86950        1.69048       -3.16589
H          4.41958        0.16318       -2.48035
H          6.38336        1.40082       -1.41914
H          5.84979        2.87353       -2.22438
H          6.10510        1.68563       -4.46867
H          6.71336        0.26980       -3.61457
H          8.58107        1.73227       -2.64726
H          7.99948        3.06228       -3.64570
H          8.38604        1.60684       -5.71442
H          9.05084        0.35698       -4.66355
H         10.76339        2.08085       -3.83637
H         10.14944        3.19511       -5.05681
H         10.66591        1.39074       -6.82866
H         11.38730        0.42841       -5.54175
H         13.61230        1.15248       -4.56105
H         12.76707        2.59467       -4.08651
H         14.55329        4.06149       -4.91922
H         15.43522        2.70442       -5.60940
H         15.54765        1.65808       -3.29215
H         14.80931        3.11591       -2.63953
H         16.75238        4.47724       -3.54563
H         17.47254        2.99779       -4.17849
H         17.50809        2.06286       -1.79828
H         16.92354        3.61927       -1.21825
H         18.98911        4.72479       -2.21776
H         19.56492        3.13618       -2.71807
H         19.51091        2.39603       -0.27851
H         19.03540        4.02945        0.17614
H         21.18940        4.90765       -0.85558
H         21.65709        3.25009       -1.22995
H         21.52228        2.68886        1.24850
H         21.14071        4.37438        1.58594
H         23.35717        5.05771        0.55879
H         23.73053        3.35840        0.27591
H         23.54404        2.93205        2.78153
H         23.25206        4.65285        3.03245
H         25.50732        5.17338        2.01133
H         25.79889        3.44241        1.80228
H         25.71467        6.19472        4.29620
H         26.56966        5.31149        6.73612
H         26.82012        2.60476        6.50810
H         26.10302        1.99689        3.94293
H         11.96763        4.24351       -5.86014
H         11.33232        3.51842       -7.33647
H         14.01160        4.64724       -6.94036
H         14.50408        3.99405       -9.15390
H         12.88093        3.31344       -9.30900
H         15.16150        2.23787       -7.53843
H         14.50325        1.47071       -9.00419
H         12.43428        1.19281       -7.96550
H         13.00820       -0.37824       -6.17494
H         13.39881       -1.98646       -7.92369
H         14.08603       -0.75970       -9.02149
H         11.79576       -1.05187       -9.44612
H         15.39903        0.60321       -5.86284
H         15.80506       -0.13314       -7.41073
H         14.75278       -1.63707       -4.92312
H         16.42803       -1.60962       -5.50061
H         15.18512       -2.41750       -6.46028
