122

C          1.27956        0.45867       -0.43768
C          2.79227        0.57499       -0.23508
C          3.21388        0.53898        1.23787
C          4.72534        0.66527        1.45032
C          5.14750        0.61807        2.92222
C          6.65825        0.75521        3.13205
C          7.08861        0.69909        4.60137
C          8.60152        0.83554        4.79567
C          9.05611        0.76865        6.25721
C         10.57286        0.90644        6.41812
C         11.06735        0.83998        7.86682
C         12.58983        0.96139        7.97574
C         13.13913        0.90354        9.40501
C         14.66695        0.99115        9.44446
C         15.28324        0.94187       10.84579
C         16.80809        1.06709       10.80302
C         17.49469        1.07261       12.17098
C         19.01487        1.18416       12.03175
C         19.76152        1.28442       13.36256
C         21.28662        1.40502       13.13062
C         22.06580        1.72096       14.35431
N         22.59565        0.82836       15.22851
C         23.22666        1.51026       16.25490
C         23.07984        2.84003       16.00126
N         22.36108        2.95606       14.82431
C         21.97037        4.24466       14.21523
C         20.91521        4.99588       15.03169
C         20.43279        6.28112       14.29940
C         19.00104        6.13176       13.75033
C         18.80313        5.01124       12.71316
C         17.36338        4.84305       12.31767
C         16.81632        4.93540       11.09143
C         17.58509        5.20882        9.82555
C         15.33043        4.77356       10.90342
C         20.54266        7.50732       15.21547
C         22.50522       -0.63605       15.13513
C         21.37891       -1.17242       16.03130
C         21.25002       -2.70254       16.06284
C         20.21793       -3.37791       15.07524
C         20.38263       -3.26293       13.50901
C         21.64072       -3.83152       12.74380
C         22.03611       -5.36021       12.81604
C         20.97965       -6.43271       12.35237
F         20.48725       -6.12121       11.14061
F         21.59205       -7.62334       12.28511
F         19.96559       -6.51632       13.23002
F         23.11590       -5.48272       12.00239
F         22.41283       -5.65247       14.08459
F         21.44296       -3.51086       11.44087
F         22.73529       -3.13624       13.17982
F         19.28036       -3.81778       12.95975
F         20.36428       -1.91715       13.20960
F         20.13380       -4.68772       15.39274
F         19.01012       -2.78954       15.33719
F         22.47154       -3.30174       15.90669
F         20.78806       -3.05226       17.30385
H          1.01151        0.47848       -1.50315
H          0.74612        1.28607        0.05422
H          0.89083       -0.48002       -0.01478
H          3.15528        1.51069       -0.69354
H          3.30045       -0.24129       -0.77651
H          2.85749       -0.40122        1.69526
H          2.70002        1.35084        1.78312
H          5.07925        1.60941        0.99954
H          5.23965       -0.14169        0.89853
H          4.80129       -0.33002        3.37034
H          4.62799        1.41970        3.47662
H          7.00285        1.70599        2.68803
H          7.17749       -0.04236        2.57149
H          6.74628       -0.25185        5.04624
H          6.57364        1.49760        5.16442
H          8.93928        1.78998        4.35433
H          9.11360        0.04287        4.22151
H          8.72528       -0.18680        6.70095
H          8.55081        1.56173        6.83632
H         10.89919        1.86105        5.96853
H         11.07105        0.11446        5.83100
H         10.74060       -0.11041        8.32403
H         10.58849        1.64067        8.45756
H         12.91175        1.90716        7.50444
H         13.05730        0.15775        7.37939
H         12.81049       -0.03197        9.89038
H         12.70515        1.72435       10.00296
H         14.98653        1.92320        8.94369
H         15.09046        0.17193        8.83698
H         15.00017       -0.00216       11.34249
H         14.86260        1.75056       11.46756
H         17.07732        1.99768       10.27409
H         17.22003        0.24341       10.19360
H         17.23625        0.15562       12.72834
H         17.11622        1.92074       12.76579
H         19.25131        2.07490       11.42364
H         19.39613        0.31713       11.46551
H         19.54916        0.40368       13.98653
H         19.40747        2.15911       13.93031
H         21.47752        2.18938       12.38397
H         21.67106        0.47599       12.68630
H         23.73390        0.99584       17.06219
H         23.43365        3.70651       16.54596
H         21.60079        4.03013       13.20635
H         22.88669        4.84261       14.10916
H         21.33741        5.25918       16.01297
H         20.06606        4.32364       15.23092
H         21.10344        6.45354       13.43660
H         18.69414        7.08674       13.29660
H         18.31348        5.96709       14.59891
H         19.15698        4.05799       13.14625
H         19.43904        5.20491       11.83508
H         16.68302        4.64223       13.15394
H         18.65944        5.35764        9.98503
H         17.19165        6.10560        9.32209
H         17.46118        4.37830        9.11168
H         14.82337        4.51678       11.84200
H         15.10515        3.99089       10.16216
H         14.88306        5.70275       10.51509
H         19.89311        7.40200       16.09731
H         20.24008        8.42184       14.68799
H         21.57250        7.65459       15.57100
H         23.47544       -1.04541       15.44011
H         22.35651       -0.89584       14.08417
H         20.41094       -0.73804       15.75040
H         21.57252       -0.88107       17.07360
