103

C          5.30004       -2.77197        0.57377
C          6.01350       -1.46146        0.91523
C          6.01684       -0.45275       -0.23911
C          6.67776        0.88375        0.11268
C          6.75149        1.85853       -1.06713
C          7.30370        3.23791       -0.69239
C          7.44956        4.17359       -1.89604
C          7.88102        5.58683       -1.48222
N          8.07044        6.50362       -2.61536
C          7.07744        7.25889       -3.13505
S          7.22397        8.29514       -4.42880
S          5.50901        7.03187       -2.26275
C          4.40926        8.09301       -3.23746
C          2.99695        7.94780       -2.66398
C          2.00696        8.79419       -3.47173
N          0.64857        8.72003       -2.90866
N         -0.18019        7.69955       -3.28028
C         -1.27188        7.85492       -2.55731
N         -1.11875        8.95219       -1.73695
C          0.09994        9.49437       -1.96470
C          0.68456       10.70185       -1.32548
C          0.44607       12.04490       -2.09812
C         -0.96654       12.61192       -1.84740
F         -1.12301       12.93835       -0.53564
F         -1.20583       13.69931       -2.58483
F         -1.92775       11.68107       -2.14586
O          1.42750       12.99176       -1.77525
C         -2.51063        7.04115       -2.63691
C         -3.54900        7.65536       -3.60053
O         -4.78564        7.07649       -3.24923
C         -5.80431        7.22791       -4.21692
C         -6.98248        6.32602       -3.84044
C         -6.83680        4.77787       -4.08193
C         -5.76188        3.91240       -3.32213
C         -5.87019        3.85300       -1.76718
F         -5.07857        2.83325       -1.33241
F         -5.39874        5.01041       -1.21826
F         -5.94127        2.64146       -3.77657
F         -4.50797        4.31036       -3.68737
F         -8.04528        4.21930       -3.78716
F         -6.59058        4.61016       -5.41356
F         -7.34735        6.52536       -2.53935
F         -8.03248        6.71168       -4.63111
C          9.42642        6.55207       -3.18790
C         10.33057        7.57430       -2.49055
C         11.75682        7.55716       -3.04892
C         12.68624        8.56477       -2.36399
C         14.12811        8.51526       -2.88006
C         15.05745        9.52870       -2.20456
C         16.50903        9.45312       -2.69218
C         17.42940       10.47638       -2.02157
H          5.33400       -3.48015        1.41308
H          5.76264       -3.26487       -0.29424
H          4.24133       -2.59874        0.32853
H          7.05525       -1.67425        1.21006
H          5.53882       -1.00190        1.79934
H          4.97816       -0.26940       -0.56725
H          6.53129       -0.89889       -1.10824
H          7.69693        0.69981        0.49564
H          6.12469        1.35515        0.94468
H          5.74498        1.98147       -1.50484
H          7.37425        1.41812       -1.86488
H          8.28285        3.12144       -0.19554
H          6.63826        3.70268        0.05699
H          6.49491        4.23602       -2.44165
H          8.18671        3.76075       -2.60366
H          8.83517        5.55131       -0.93537
H          7.15016        6.02571       -0.78444
H          4.46172        7.77776       -4.28911
H          4.77069        9.13012       -3.18724
H          2.97974        8.26638       -1.60871
H          2.67278        6.89661       -2.68995
H          1.92042        8.44046       -4.50633
H          2.30114        9.85218       -3.49814
H         -1.81946        9.33865       -1.10827
H          1.77410       10.58357       -1.26597
H          0.31528       10.78838       -0.29353
H          0.53017       11.86986       -3.18192
H          1.27343       13.34461       -0.88059
H         -2.97523        6.96815       -1.64204
H         -2.25431        6.02349       -2.95513
H         -3.27581        7.42860       -4.64738
H         -3.58474        8.75913       -3.49332
H         -5.45777        6.95293       -5.22844
H         -6.19842        8.26019       -4.24441
H         -6.90501        3.68072       -1.43362
H          9.32869        6.79043       -4.25491
H          9.84819        5.53882       -3.09912
H         10.35590        7.36830       -1.40681
H          9.88822        8.57572       -2.61217
H         11.72771        7.76254       -4.13277
H         12.17997        6.54241       -2.94345
H         12.68346        8.38149       -1.27491
H         12.28225        9.58316       -2.49965
H         14.13222        8.68595       -3.97092
H         14.53098        7.49747       -2.73335
H         15.03388        9.37400       -1.11114
H         14.66924       10.54904       -2.37209
H         16.53225        9.59687       -3.78576
H         16.89706        8.43572       -2.51436
H         17.09218       11.50551       -2.21614
H         18.46159       10.39116       -2.38805
H         17.45256       10.33822       -0.93015
