70

C          1.90877       -1.03812       -5.91768
C          3.16935       -0.35537       -6.45351
C          4.40338       -1.26240       -6.39704
C          5.69306       -0.61785       -6.92142
N          6.12566        0.54057       -6.12704
C          6.91342        0.42465       -5.03683
O          7.42601       -0.64703       -4.68464
C          7.07909        1.70473       -4.18618
N          8.44660        2.10308       -3.82569
C          9.09023        1.45795       -2.80214
N          8.67472        0.22923       -2.48049
N         10.09530        2.01536       -2.10073
C         10.34898        3.37844       -1.53201
C          9.10930        4.29985       -1.54043
C          7.85924        3.89778       -0.71448
C          7.87327        4.47700        0.70987
C          6.58141        4.36425       -1.42778
C         10.79680        3.08151       -0.08068
O         11.87943        2.14730       -0.14406
C         11.52327        4.04675       -2.27375
C          9.22071        2.85194       -4.81621
C         10.31257        1.96163       -5.47826
O         10.52446        0.83621       -5.02614
N         11.00529        2.49888       -6.51722
C         10.77651        3.83717       -7.07517
C          9.85816        3.84209       -8.30030
C         12.06701        1.68245       -7.13544
C         13.42786        1.87880       -6.46723
H          1.03930       -0.36954       -5.96762
H          2.03697       -1.34288       -4.86882
H          1.66923       -1.94066       -6.49789
H          3.35342        0.56371       -5.87030
H          3.00171       -0.03222       -7.49507
H          4.22146       -2.16827       -6.99768
H          4.57325       -1.60828       -5.36460
H          5.56281       -0.27237       -7.95729
H          6.51784       -1.34105       -6.90296
H          5.69539        1.43868       -6.31962
H          6.52722        1.51993       -3.25233
H          6.60831        2.56853       -4.67713
H          8.24597       -0.35166       -3.24023
H          8.97466       -0.18607       -1.60602
H         10.72306        1.33673       -1.66441
H          8.81292        4.45102       -2.58848
H          9.46033        5.28665       -1.19793
H          7.82173        2.79588       -0.64105
H          7.86350        5.57690        0.67325
H          8.75106        4.17596        1.29502
H          6.98224        4.15730        1.26758
H          6.56754        5.46069       -1.52279
H          5.68476        4.07212       -0.86406
H          6.50027        3.94266       -2.43935
H          9.95775        2.65559        0.49178
H         11.11025        4.02808        0.39112
H         12.12974        1.88902        0.75577
H         11.26184        4.30641       -3.30676
H         12.39692        3.38493       -2.29420
H         11.80748        4.97517       -1.76057
H          9.69678        3.72720       -4.35448
H          8.51520        3.23978       -5.56188
H         11.76096        4.24881       -7.34321
H         10.37978        4.50037       -6.29458
H         10.25713        3.20415       -9.09986
H          9.76358        4.86118       -8.69885
H          8.85179        3.47736       -8.05052
H         12.11057        1.95484       -8.19974
H         11.75840        0.63197       -7.06737
H         13.75536        2.92711       -6.50856
H         14.18684        1.27097       -6.97784
H         13.38959        1.56351       -5.41666
