85

C          5.76484        5.07266       -7.72195
C          5.28337        3.78355       -7.05095
C          4.98022        2.65606       -8.04590
C          4.53741        1.33741       -7.39110
N          3.29598        1.47308       -6.61337
C          3.38389        1.50479       -5.25332
O          4.44106        1.36526       -4.63240
C          2.09867        1.85335       -4.46195
C          1.97448        3.33864       -4.42510
N          1.18088        4.01406       -5.21908
N          1.47260        5.33272       -4.99191
C          2.45165        5.46790       -4.08110
N          2.99228        6.61217       -3.64195
C          2.81794        7.85438       -4.39824
C          3.62549        7.86846       -5.72123
C          2.96915        8.69738       -6.84199
P          1.59718        7.80046       -7.61388
O          0.59549        7.21433       -6.65836
O          1.00474        8.88212       -8.61270
C         -0.17580        8.58526       -9.43506
C         -0.59823        9.86425      -10.12355
O          2.32943        6.67850       -8.49938
C          1.85801        5.29640       -8.58105
C          2.00903        4.81372      -10.00750
N          2.78292        4.19993       -3.68312
C          3.82947        3.89617       -2.69530
C          5.23952        4.15872       -3.24660
C          6.26095        4.32101       -2.11208
S          7.67355        5.35956       -2.56423
C          7.02942        7.00962       -2.32535
S          5.49535        7.32029       -1.68966
N          7.90203        7.98592       -2.64478
C          7.55754        9.40893       -2.46045
C          6.88657       10.01648       -3.69309
C          9.26052        7.72102       -3.15467
C         10.31722        7.64604       -2.04982
C          2.03384        1.51974       -7.35762
H          6.00536        5.84401       -6.97619
H          5.00579        5.49232       -8.39853
H          6.67417        4.89747       -8.31486
H          4.38077        3.99562       -6.45181
H          6.04122        3.43402       -6.33234
H          5.88171        2.43791       -8.64136
H          4.22046        2.99234       -8.77255
H          5.30821        0.97695       -6.69931
H          4.38052        0.56348       -8.15740
H          2.21952        1.42331       -3.46108
H          1.18014        1.45281       -4.90423
H          1.04028        6.08252       -5.60686
H          3.81366        6.57751       -3.01094
H          3.14168        8.66772       -3.73760
H          1.74620        8.00353       -4.59085
H          3.76763        6.83409       -6.07102
H          4.63587        8.25432       -5.52630
H          3.69224        8.93131       -7.63592
H          2.57831        9.65650       -6.47062
H         -0.96448        8.19439       -8.77622
H          0.10584        7.80680      -10.16110
H         -0.86806       10.63473       -9.39014
H         -1.47668        9.66722      -10.75324
H          0.20385       10.25159      -10.76472
H          0.81627        5.24610       -8.23634
H          2.47429        4.70702       -7.88685
H          1.38705        5.40260      -10.69469
H          1.68748        3.76500      -10.07722
H          3.05252        4.87866      -10.34249
H          3.70981        2.84741       -2.40101
H          3.63467        4.52158       -1.81020
H          5.22633        5.07913       -3.84608
H          5.52190        3.33753       -3.91608
H          6.71510        3.36288       -1.82290
H          5.81060        4.78123       -1.22025
H          8.49580        9.93268       -2.22964
H          6.90073        9.48569       -1.58548
H          7.51556        9.92118       -4.58916
H          6.69847       11.08543       -3.52484
H          5.92232        9.52692       -3.88398
H          9.49548        8.52995       -3.86155
H          9.23696        6.79208       -3.74225
H         10.37485        8.58459       -1.48256
H         11.30395        7.46143       -2.49482
H         10.10066        6.83075       -1.34823
H          2.26781        1.65525       -8.41934
H          1.39933        2.35847       -7.04541
H          1.47095        0.57883       -7.25803
