65

S          2.02401        0.55669       -4.51051
C          2.30124       -0.66546       -3.14799
C          3.45874       -0.16478       -2.31159
O          4.60163       -0.55088       -2.40060
O          3.04484        0.85073       -1.49674
C          4.08648        1.62147       -0.84720
C          4.67750        2.62288       -1.86415
N          3.65427        3.28294       -2.69179
C          2.80446        4.26220       -2.28749
N          3.19317        5.38477       -1.67292
C          4.54972        5.85134       -1.36578
C          4.96617        5.53500        0.06057
C          4.08752        5.78009        1.12474
C          4.45862        5.43054        2.42303
C          5.70022        4.83963        2.66774
C          6.60624        4.60550        1.62141
C          6.21846        4.96720        0.32132
C          7.95738        3.99348        1.88327
N          1.49851        4.11610       -2.59870
C          0.45893        5.13901       -2.39973
C          0.31959        5.59723       -0.95670
C          0.37091        6.96253       -0.63962
C          0.29234        7.38766        0.68967
C          0.16616        6.46423        1.73814
C          0.11353        5.09851        1.40767
C          0.18408        4.66708        0.08519
C          0.06674        6.92210        3.16893
C          3.45923        2.29020        0.36805
O          3.09342        1.29943        1.34453
C          1.78465        0.92028        1.39891
O          0.89138        1.42781        0.74991
C          1.61896       -0.22769        2.36593
S          2.11809       -1.80496        1.57415
H          0.70093        0.73832       -4.29587
H          2.55790       -1.63265       -3.59004
H          1.38500       -0.73972       -2.55350
H          4.88769        0.93816       -0.52774
H          5.33479        2.08456       -2.55743
H          5.28993        3.35519       -1.32995
H          3.20240        2.62821       -3.34041
H          2.43220        5.91211       -1.23790
H          4.54482        6.93897       -1.53490
H          5.24767        5.42380       -2.09650
H          3.10556        6.22524        0.95251
H          3.77035        5.61271        3.24921
H          5.97218        4.55567        3.68593
H          6.91350        4.79275       -0.50557
H          7.91467        3.26129        2.69994
H          8.68369        4.76651        2.17739
H          8.35638        3.49282        0.99166
H          1.20450        3.16650       -2.80699
H         -0.47569        4.68871       -2.76110
H          0.67100        6.00046       -3.05216
H          0.46861        7.70389       -1.43718
H          0.33441        8.45522        0.91334
H          0.01574        4.35480        2.20093
H          0.15182        3.59540       -0.12122
H          0.58209        7.87831        3.32532
H          0.49016        6.18148        3.85999
H         -0.98607        7.06806        3.45623
H          2.57490        2.88606        0.10480
H          4.20310        2.93151        0.85444
H          0.58146       -0.28365        2.70879
H          2.29086       -0.11055        3.22454
H          0.99729       -1.94843        0.82807
