54

C          2.26803        3.01548       -7.67614
C          3.68437        3.29139       -7.16689
C          3.84429        3.04029       -5.66243
C          5.27258        3.29192       -5.16357
C          5.40116        3.12039       -3.66089
O          6.77933        3.35238       -3.29402
C          6.98546        3.45445       -1.91661
N          8.25835        4.17143       -1.73716
C          9.20295        3.71140       -0.90192
N         10.51168        3.97825       -1.07424
C         11.22839        4.11083       -2.34877
C         12.47232        3.21740       -2.32750
O         13.19124        3.49368       -3.49938
C         14.41860        2.74634       -3.59555
C         15.13283        3.15500       -4.86702
N          8.85194        2.95827        0.16533
C          8.40270        5.46000       -2.46064
C          7.30815        6.48008       -2.09779
C          7.27437        6.78439       -0.59519
C          7.54644        7.74946       -2.92711
H          2.18680        3.21296       -8.75317
H          1.52726        3.64889       -7.16615
H          1.97969        1.96737       -7.50814
H          3.96086        4.33608       -7.38857
H          4.40533        2.66429       -7.71774
H          3.55083        2.00141       -5.43248
H          3.13819        3.68523       -5.11036
H          5.59002        4.31344       -5.42993
H          5.97285        2.60286       -5.66221
H          5.10200        2.10349       -3.34657
H          4.75890        3.84392       -3.12283
H          7.07835        2.46519       -1.43313
H          6.15867        4.01229       -1.43408
H         11.09122        3.91325       -0.24068
H         11.53619        5.15304       -2.52076
H         10.55986        3.80951       -3.16433
H         12.17533        2.14984       -2.26590
H         13.08014        3.44416       -1.42242
H         14.18745        1.66424       -3.59522
H         15.03957        2.95817       -2.70420
H         14.52133        2.93285       -5.75120
H         16.07919        2.60513       -4.95709
H         15.36002        4.22906       -4.85995
H          7.93677        3.04087        0.58999
H          9.52254        2.34123        0.60726
H          8.39189        5.25647       -3.53871
H          9.37984        5.87872       -2.19272
H          6.33210        6.06527       -2.40184
H          8.23452        7.20203       -0.25410
H          7.06180        5.89234        0.01308
H          6.49479        7.52264       -0.36578
H          8.49699        8.23257       -2.65481
H          6.74439        8.47821       -2.75338
H          7.57189        7.53253       -4.00399
