89

S          3.00563        1.36582       -1.28777
C          3.37974        0.86654        0.42952
C          4.02796        2.04459        1.12218
O          3.98131        3.18993        0.73100
O          4.68545        1.63846        2.24505
C          5.27627        2.68598        3.05455
C          6.80222        2.64255        2.95638
C          7.40470        3.05216        1.58665
C          7.29313        1.97311        0.53544
C          7.76598        0.70297        0.86414
N          7.62838       -0.36002        0.03877
C          7.02362       -0.21961       -1.16817
C          6.59161        1.02357       -1.57702
C          6.73559        2.15838       -0.75500
C          6.30269        3.48686       -1.30098
C          7.21903        3.93413       -2.46087
C          6.77651        5.29549       -2.98766
C          7.47654        5.80052       -4.30387
C          7.45937        4.89967       -5.60502
C          6.11298        4.35686       -6.22673
C          4.97382        5.33203       -6.72828
C          5.31435        6.36907       -7.86262
F          5.90621        5.76517       -8.90662
F          4.16511        6.92831       -8.27455
F          6.12106        7.33748       -7.39674
F          3.99812        4.51702       -7.20891
F          4.47902        6.02101       -5.67208
F          6.48190        3.58200       -7.27631
F          5.53276        3.54137       -5.29175
F          8.11527        5.59101       -6.56518
F          8.19338        3.77633       -5.32195
F          6.95713        7.00938       -4.61831
F          8.80084        5.96234       -4.00879
F          5.42411        5.31983       -3.19090
F          7.04882        6.25426       -2.04065
C          8.05897       -1.70570        0.49416
C          7.04451       -2.26651        1.50305
C          7.22876       -3.76223        1.81235
C          6.22804       -4.75523        1.10308
C          6.19068       -4.87505       -0.47307
C          7.41361       -5.40896       -1.32412
C          8.06379       -6.82850       -1.06842
C          7.21575       -8.16077       -1.17096
C          6.48944       -8.58141       -2.51314
C          7.34423       -8.75150       -3.82417
F          8.42658       -9.51322       -3.59973
F          6.57712       -9.34127       -4.75415
F          7.73980       -7.55282       -4.29494
F          5.92416       -9.78380       -2.24500
F          5.50052       -7.68663       -2.77452
F          8.07941       -9.15189       -0.84275
F          6.24434       -8.10595       -0.22148
F          9.08966       -6.91823       -1.95297
F          8.58614       -6.80819        0.18443
F          7.00953       -5.34407       -2.61482
F          8.43509       -4.50925       -1.16810
F          5.11114       -5.61943       -0.77950
F          5.96649       -3.59724       -0.95442
F          6.40581       -5.98435        1.62680
F          4.97434       -4.31832        1.44174
F          8.51351       -4.16306        1.56304
F          7.00040       -3.95119        3.14736
O          7.22473        3.57399        3.96698
C          8.50424        3.41677        4.43214
O          9.24211        2.52741        4.05701
C          8.84380        4.50203        5.42088
S          9.17745        6.07988        4.55067
H          2.55763        0.14589       -1.66741
H          4.04625       -0.00457        0.47176
H          2.45595        0.61272        0.97095
H          4.97953        2.47664        4.08934
H          4.88359        3.66226        2.74357
H          7.16273        1.64123        3.23988
H          8.46993        3.27077        1.75571
H          6.93396        3.98287        1.25260
H          8.27718        0.50890        1.80707
H          6.91594       -1.12199       -1.76677
H          6.11894        1.11168       -2.55420
H          6.27575        4.25521       -0.52300
H          5.27505        3.38458       -1.67890
H          7.18884        3.20321       -3.27759
H          8.26567        4.02461       -2.13843
H          9.05688       -1.60902        0.93830
H          8.14852       -2.33288       -0.39701
H          6.01927       -2.09969        1.14915
H          7.14207       -1.74692        2.46605
H          9.70539        4.19965        6.02362
H          7.98672        4.70853        6.07359
H         10.40107        5.73103        4.08692
