62

C          0.77834        1.01696       -0.23626
C          2.30013        0.91384       -0.11368
C          2.88042       -0.33549       -0.78470
C          4.39756       -0.46046       -0.61850
C          4.96299       -1.76899       -1.17899
C          6.45878       -1.94613       -0.89945
C          7.04027       -3.19897       -1.55992
C          8.50923       -3.45152       -1.13006
C          9.07687       -4.68532       -1.76172
C          9.80168       -4.57819       -2.96040
C         10.31446       -5.69171       -3.60956
N         10.08315       -6.90236       -3.04249
C          9.37976       -7.06563       -1.89822
C          8.85331       -5.98064       -1.21544
C          8.08159       -6.20322        0.05599
C          8.95039       -6.09315        1.32802
C          8.11340       -5.94240        2.60319
S          7.28704       -4.32821        2.72609
C          5.59255       -4.67641        2.31917
S          4.98309       -6.13575        1.87262
N          4.80193       -3.52656        2.43227
C          5.17792       -2.25096        2.88156
N          4.17702       -1.41589        2.86252
C          3.08804       -2.14395        2.39019
C          3.43988       -3.43378        2.12072
C         11.12118       -5.63015       -4.88633
C         10.72308       -6.64735       -5.92098
C          9.92597       -6.46859       -6.97833
Br         9.09195       -4.82301       -7.36986
Br        11.45885       -8.40810       -5.66794
H          0.39499        1.92072        0.25628
H          0.27970        0.15123        0.22591
H          0.46177        1.05334       -1.28936
H          2.58913        0.91377        0.95106
H          2.76797        1.81193       -0.55103
H          2.62127       -0.33357       -1.85830
H          2.39670       -1.23353       -0.36213
H          4.64917       -0.38156        0.45134
H          4.89412        0.39369       -1.11123
H          4.78091       -1.81492       -2.26710
H          4.41279       -2.62015       -0.74117
H          6.62162       -1.99911        0.19044
H          7.01335       -1.05801       -1.24779
H          6.99407       -3.10714       -2.65731
H          6.42295       -4.07440       -1.29991
H          8.54364       -3.52746       -0.03363
H          9.12088       -2.58281       -1.41461
H          9.96886       -3.59636       -3.40414
H         10.44862       -7.73191       -3.53155
H          9.25405       -8.09383       -1.56052
H          7.59299       -7.18691        0.02909
H          7.26892       -5.46760        0.11576
H          9.64552       -5.24340        1.24166
H          9.57936       -6.99232        1.42909
H          8.75104       -5.99691        3.49559
H          7.32439       -6.70698        2.68030
H          6.18671       -2.02673        3.21469
H          2.11334       -1.67991        2.27716
H          2.89411       -4.29367        1.75519
H         12.19057       -5.74872       -4.64470
H         10.99784       -4.62622       -5.31495
H          9.69859       -7.25132       -7.69853
