79

C          4.85612        4.99887       12.99444
C          6.00079        4.83715       11.99098
C          5.82169        5.68142       10.72408
C          6.96891        5.53084        9.71994
C          6.78579        6.36415        8.44718
C          7.93888        6.21119        7.45019
C          7.75599        7.03437        6.17034
C          8.91631        6.86174        5.18210
C          8.73781        7.67477        3.91190
O          9.86370        7.41860        3.04715
C          9.81698        8.10355        1.78689
C         10.99333        7.64132        0.91149
N         10.72665        6.35707        0.25549
C         10.86244        5.17550        1.12028
C         10.72551        3.88172        0.30450
C         10.32305        2.64652        1.15441
C         11.28837        1.44729        1.13294
P         12.84431        1.67755        2.04641
O         12.70560        2.44155        3.32150
O         13.51161        0.22931        2.21717
C         13.48522       -0.48226        3.49682
C         12.22646       -1.31442        3.65378
O         13.76909        2.36011        0.92158
C         15.18474        2.61042        1.19701
C         16.04922        1.70109        0.34713
C         12.17410        5.18164        1.91201
N         12.32934        6.48426        2.65712
C         12.31918        7.65570        1.70545
C         13.52215        6.46377        3.58728
C         14.78403        6.42748        2.87121
C         15.84468        6.41261        2.29306
H          5.01501        4.38229       13.88958
H          3.89286        4.70176       12.55365
H          4.75881        6.04388       13.32451
H          6.09595        3.77508       11.70753
H          6.95557        5.10660       12.47378
H          5.71985        6.74430       11.00595
H          4.86982        5.40761       10.23559
H          7.07604        4.46640        9.44560
H          7.91896        5.81326       10.20716
H          6.67609        7.42864        8.71874
H          5.83879        6.07868        7.95658
H          8.05222        5.14553        7.18401
H          8.88495        6.50330        7.93909
H          7.64969        8.10093        6.43202
H          6.81089        6.74431        5.68050
H          9.01672        5.79723        4.91072
H          9.86158        7.15916        5.66805
H          8.68666        8.75732        4.12911
H          7.81157        7.38985        3.38133
H          9.87964        9.19438        1.95805
H          8.87239        7.88119        1.26344
H         11.09287        8.39289        0.11394
H         11.31000        6.25770       -0.57773
H         10.02684        5.21080        1.83928
H         11.66255        3.68977       -0.24313
H          9.95426        4.07145       -0.45496
H          9.34634        2.28544        0.80479
H         10.16840        2.94543        2.20270
H         11.53543        1.13120        0.10880
H         10.80490        0.58525        1.61690
H         13.59168        0.25337        4.30583
H         14.38197       -1.11418        3.47000
H         11.33370       -0.68291        3.75955
H         12.30550       -1.92893        4.56165
H         12.08917       -1.98846        2.79799
H         15.37892        2.47722        2.27203
H         15.35041        3.67079        0.95713
H         15.88336        0.64813        0.60659
H         17.11066        1.93523        0.51152
H         15.82968        1.83766       -0.71974
H         13.04165        5.09368        1.24209
H         12.22666        4.36782        2.65217
H         11.46193        6.62879        3.22729
H         13.18999        7.54807        1.04626
H         12.43270        8.57053        2.30376
H         13.40555        5.57377        4.22453
H         13.45665        7.36137        4.22113
H         16.79125        6.40256        1.79136
