75

C          0.80256       -0.01187       -0.64910
C          2.31752        0.00143       -0.43039
C          2.82229       -1.19263        0.38758
C          4.33923       -1.19620        0.60130
C          4.83838       -2.38842        1.42386
C          6.35720       -2.40529        1.62358
C          6.84809       -3.59689        2.45188
C          8.36735       -3.62589        2.64451
C          8.84503       -4.81764        3.48160
C         10.36691       -4.84227        3.67468
C         10.80809       -6.00867        4.53679
O         12.25750       -5.95977        4.67095
C         12.75299       -6.86977        5.58827
N         14.22251       -6.50556        5.76738
C         14.44250       -5.03218        6.03636
C         13.75662       -4.54600        7.31441
O         13.19059       -5.27738        8.10572
O         13.88769       -3.22674        7.38663
C         13.31100       -2.55465        8.57184
C         14.31468       -2.48191        9.70955
C         13.72510       -1.74559       10.92144
C         14.70333       -1.65388       12.09754
C         14.11351       -0.94463       13.32194
C         15.09084       -0.85785       14.49636
C         14.93983       -7.42051        6.74836
C         15.02733       -8.86277        6.25129
C         16.06244       -9.64521        7.05516
F         17.31538       -9.03493        6.90793
H          0.47183        0.85666       -1.23492
H          0.26000        0.00713        0.30784
H          0.48528       -0.91632       -1.18936
H          2.60924        0.93693        0.07649
H          2.83131        0.01511       -1.40656
H          2.52296       -2.12972       -0.11461
H          2.31452       -1.20244        1.36837
H          4.64045       -0.25767        1.09940
H          4.84588       -1.19220       -0.37988
H          4.52628       -3.32665        0.93215
H          4.34067       -2.38568        2.40960
H          6.67280       -1.46626        2.11162
H          6.85521       -2.41520        0.63816
H          6.52473       -4.53523        1.96802
H          6.35556       -3.58194        3.44006
H          8.69435       -2.68784        3.12625
H          8.86284       -3.64943        1.65848
H          8.51937       -5.75561        3.00013
H          8.34843       -4.79151        4.46698
H         10.70078       -3.90416        4.14725
H         10.87081       -4.90582        2.69709
H         10.52575       -6.97591        4.08476
H         10.36246       -5.95281        5.54625
H         12.73641       -7.91056        5.21851
H         12.28041       -6.80264        6.58134
H         14.65060       -6.66749        4.84348
H         14.05617       -4.47770        5.17472
H         15.52682       -4.87238        6.10550
H         12.40186       -3.09922        8.85804
H         13.04441       -1.56132        8.19143
H         15.22439       -1.96813        9.36052
H         14.60763       -3.50200       10.00562
H         12.80622       -2.26055       11.25055
H         13.41643       -0.72943       10.62168
H         15.61731       -1.12657       11.77323
H         15.02486       -2.67043       12.38464
H         13.19907       -1.47323       13.64012
H         13.79117        0.06987       13.03287
H         15.40564       -1.85778       14.83004
H         14.63746       -0.34905       15.35734
H         15.99835       -0.29989       14.22192
H         14.41462       -7.32601        7.70569
H         15.94969       -7.00355        6.85780
H         15.32744       -8.88909        5.18962
H         14.06405       -9.38657        6.33769
H         16.14035      -10.67728        6.68570
H         15.82434       -9.66243        8.13036
