51

C          6.81413        8.78961       -1.72389
C          6.21780        8.00170       -0.55531
C          6.99747        6.72479       -0.22392
C          6.39936        5.92173        0.93540
C          7.19891        4.66115        1.27731
C          6.59908        3.85251        2.43304
C          7.40000        2.60437        2.79277
O          8.78200        2.87407        3.13910
C          8.94806        3.49772        4.37421
N         10.39809        3.58264        4.53906
C         11.04319        4.29702        5.45677
N         10.31564        4.90089        6.45662
C         10.83188        5.75021        7.45608
O         12.01616        6.01990        7.57083
O          9.82204        6.17070        8.20979
C         10.16352        7.03391        9.36289
C         10.46988        6.20122       10.59003
N         12.37026        4.44802        5.44125
C         13.24567        4.19592        4.28937
C         13.66315        2.74480        4.09256
O         12.51550        2.02341        3.61700
H          6.24105        9.70449       -1.92597
H          6.81955        8.19193       -2.64734
H          7.85311        9.08755       -1.51800
H          5.17162        7.73828       -0.78388
H          6.17733        8.64368        0.34103
H          8.04321        6.98923        0.01527
H          7.04876        6.08508       -1.12216
H          5.36026        5.64217        0.68921
H          6.33229        6.56645        1.83013
H          8.23715        4.94186        1.52349
H          7.26982        4.01477        0.38542
H          5.58309        3.51286        2.17105
H          6.46524        4.49652        3.32030
H          7.47987        1.93064        1.92942
H          6.92519        2.04673        3.62050
H          8.48826        2.89384        5.18883
H          8.52028        4.52101        4.40074
H         10.96275        2.92548        3.97320
H          9.32451        4.69015        6.52834
H          9.26164        7.64398        9.48510
H         11.00437        7.67228        9.06574
H          9.63600        5.53179       10.83615
H         10.62491        6.87461       11.44426
H         11.38476        5.60996       10.45951
H         12.71909        5.01529        6.22654
H         14.14404        4.80464        4.44976
H         12.75521        4.56109        3.37255
H         14.03592        2.31850        5.03843
H         14.47456        2.71730        3.34672
H         12.73743        1.08756        3.49280
