49

N          6.67861       -1.69688        1.32392
C          7.36749       -0.43124        0.99412
C          6.38079        0.60781        0.45140
C          5.01125        0.67281        1.17626
C          5.08183        0.84945        2.66689
N          5.38887       -0.25749        3.39405
C          5.46385       -0.32435        4.75309
C          5.24071        0.86086        5.45200
C          4.94077        2.03338        4.76297
C          4.84805        2.03791        3.37396
N          4.50635        3.30853        2.76706
O          3.27388        3.07166        2.05856
O          5.53221        3.55645        1.78497
C          5.80384       -1.66615        5.39944
C          5.88504       -1.55559        6.94948
C          4.59128       -1.31578        7.78014
C          3.95890       -2.62632        8.27918
C          4.89686       -0.40476        8.97970
C          4.73580       -2.72441        5.02208
O          4.75317       -2.95996        3.61190
C          7.19733       -2.11687        4.89317
H          7.35622       -2.41878        1.57413
H          6.18210       -2.06008        0.50656
H          8.18476       -0.55766        0.26414
H          7.83548       -0.06413        1.92230
H          6.16027        0.39171       -0.60539
H          6.85321        1.59857        0.47574
H          4.44635       -0.25227        0.98587
H          4.42845        1.49418        0.74980
H          5.64187       -1.10296        2.80242
H          5.30256        0.87223        6.53547
H          4.76431        2.96754        5.29697
H          2.78537        3.90327        2.19616
H          5.65620        4.52052        1.84709
H          6.62287       -0.77005        7.17792
H          6.35309       -2.48776        7.30296
H          3.84284       -0.80296        7.15002
H          4.65688       -3.16602        8.93708
H          3.67895       -3.30656        7.46497
H          3.04878       -2.42178        8.85944
H          5.64184       -0.87000        9.64301
H          3.99373       -0.21721        9.57594
H          5.30071        0.57268        8.67346
H          3.73838       -2.38128        5.34368
H          4.98074       -3.64926        5.57255
H          4.03220       -3.56935        3.39361
H          7.96379       -1.37726        5.15998
H          7.21311       -2.26605        3.80853
H          7.46658       -3.07205        5.36294
