77

C          0.80112        0.59922       -0.59391
C          2.29811        0.52420       -0.30066
S          2.91418        2.24588       -0.11132
C          4.59276        2.01172        0.20804
N          5.44474        2.93282        0.59560
N          6.69107        2.32504        0.65330
C          6.49481        1.08916        0.32866
O          5.20470        0.77405        0.02307
N          7.43241        0.04932        0.29084
C          7.36933       -1.04310       -0.57433
C          8.46660       -1.80254       -0.32107
N          9.18221       -1.17554        0.68759
C          8.55567       -0.03734        1.06781
C          8.99203        0.88696        2.13616
C          8.12410        0.83478        3.42118
C          8.85150        1.57418        4.56540
S          7.78214        2.61197        5.58183
C          7.73558        4.12894        4.60471
S          8.61789        4.33296        3.20187
N          6.93334        5.07441        5.14357
C          6.15357        4.92376        6.37758
C          4.67558        5.20157        6.08738
O          4.49069        6.48641        5.50879
C          5.22663        6.60667        4.29106
C          6.72257        6.38142        4.50645
C         10.43031       -1.69073        1.27496
C         11.66566       -0.98725        0.69165
C         12.96899       -1.44368        1.38041
C         13.93244       -0.30208        1.88292
C         13.43019        0.79424        2.91375
C         12.80979        0.41529        4.31778
C         13.60915       -0.40821        5.40465
C         14.95950        0.13341        6.02534
C         15.02494        1.51447        6.79645
C         14.08645        1.73684        8.04126
F         14.16582        0.70387        8.89602
F         14.47619        2.85681        8.66953
F         12.80396        1.88925        7.65650
F         16.30224        1.60982        7.24052
F         14.79592        2.52102        5.91490
F         15.36018       -0.83534        6.88574
F         15.86837        0.21691        5.01966
F         12.73080       -0.60411        6.42456
F         13.90500       -1.61711        4.86527
F         12.41215        1.58204        4.87389
F         11.67639       -0.32190        4.06197
F         14.46673        1.63104        3.11890
F         12.43418        1.50775        2.28893
F         15.03865       -0.88243        2.39722
F         14.28740        0.40875        0.77212
F         12.70465       -2.27648        2.43809
F         13.71059       -2.17248        0.49172
H          0.40737       -0.41832       -0.71515
H          0.59670        1.15144       -1.52071
H          0.24956        1.07816        0.22568
H          2.84296        0.04805       -1.12557
H          2.50199       -0.01906        0.63123
H          6.55893       -1.16558       -1.28098
H          8.79623       -2.73270       -0.76773
H          8.97705        1.92784        1.77310
H         10.03048        0.64822        2.38836
H          7.91741       -0.20689        3.70941
H          7.16071        1.31930        3.21801
H          9.63282        2.24012        4.16974
H          9.31067        0.87067        5.27279
H          6.53374        5.64135        7.12333
H          6.27021        3.91388        6.78705
H          4.09967        5.19167        7.02250
H          4.27881        4.41395        5.41588
H          5.04807        7.62485        3.92114
H          4.84683        5.88303        3.54332
H          7.13586        7.16166        5.16662
H          7.26770        6.39195        3.55591
H         10.45088       -2.76889        1.07912
H         10.37169       -1.56009        2.36047
H         11.55718        0.09947        0.77587
H         11.77153       -1.21613       -0.37650
