49

F          1.82558        0.79731       -1.65904
C          1.63464       -0.41225       -0.90403
C          2.71695       -1.42497       -1.21735
C          4.20252       -1.10690       -0.90022
C          4.50764       -0.68018        0.55312
C          4.32020        0.82027        0.84175
C          4.80436        1.17246        2.25955
C          4.50161        2.60512        2.69357
O          3.12580        2.85825        2.45976
C          2.68968        4.12769        2.96127
C          1.20662        4.27243        2.68163
C          5.02067        1.67297       -0.21753
N          4.55324        1.30590       -1.60569
C          4.86722       -0.14191       -1.89393
Si         5.08814        2.52496       -2.96991
C          6.95273        2.53479       -2.96390
C          4.33845        1.84210       -4.53754
C          4.30968        4.14459       -2.46405
H          0.64675       -0.78797       -1.19924
H          1.60509       -0.10909        0.15134
H          2.63365       -1.71222       -2.27809
H          2.44158       -2.32662       -0.64483
H          4.72180       -2.06435       -1.06864
H          5.55375       -0.94918        0.77771
H          3.89059       -1.26611        1.25081
H          3.25069        1.08225        0.80590
H          5.88868        0.99285        2.35014
H          4.31243        0.48271        2.96235
H          5.12761        3.34085        2.14480
H          4.74711        2.72400        3.76578
H          3.26753        4.93764        2.47375
H          2.89551        4.18405        4.04687
H          1.00145        4.22986        1.60316
H          0.84286        5.23684        3.06018
H          0.63683        3.47461        3.17612
H          6.11244        1.53183       -0.19393
H          4.80560        2.73748       -0.06481
H          3.51437        1.36264       -1.59422
H          5.96092       -0.24119       -1.84479
H          4.54933       -0.35821       -2.92145
H          7.37963        1.54204       -3.15954
H          7.36847        2.91986       -2.02349
H          7.29929        3.19969       -3.76886
H          4.84428        0.93726       -4.89808
H          4.43500        2.60334       -5.32588
H          3.26643        1.62784       -4.42279
H          4.75860        4.57713       -1.56085
H          3.22607        4.04716       -2.30706
H          4.45564        4.86885       -3.27912
