66

C          0.75569        0.05213       -0.47680
C          2.28583        0.01981       -0.44762
C          2.85515       -1.26297        0.16887
C          4.38645       -1.31567        0.17435
C          4.95381       -2.60493        0.77763
C          6.48472       -2.67283        0.75542
C          7.04361       -3.96909        1.35145
C          8.57420       -4.05196        1.32584
C          9.11008       -5.35457        1.92889
C         10.64051       -5.46228        1.91566
C         11.12282       -6.78340        2.53157
C         12.64508       -7.00029        2.45301
N         13.31469       -5.95727        3.26870
C         13.65702       -6.31821        4.48284
S         13.56678       -7.96086        4.82867
C         13.21956       -8.35037        3.00179
C         12.23418       -9.52880        2.97732
C         11.88284      -10.01826        1.56099
C         10.67370      -10.94089        1.57142
F         10.86942      -12.01786        2.37383
F          9.56212      -10.29522        2.02634
F         10.40060      -11.39388        0.32788
C         14.59766       -8.66272        2.34462
C         15.41950       -9.73792        3.02324
C         15.21360      -11.10223        2.76105
C         15.96139      -12.07748        3.42319
C         16.93531      -11.70492        4.35352
C         17.16937      -10.35150        4.60596
C         16.41892       -9.37804        3.94303
H          0.38118        0.98244       -0.92508
H          0.33419       -0.02067        0.53684
H          0.34968       -0.78547       -1.06335
H          2.66341        0.89102        0.11410
H          2.67585        0.13127       -1.47362
H          2.46284       -2.13578       -0.38256
H          2.48073       -1.36786        1.20259
H          4.78080       -0.44701        0.73053
H          4.75705       -1.20453       -0.85995
H          4.54387       -3.47283        0.23179
H          4.59874       -2.70883        1.81802
H          6.89780       -1.80881        1.30504
H          6.83897       -2.56673       -0.28494
H          6.62481       -4.83163        0.80430
H          6.69172       -4.07315        2.39279
H          8.99700       -3.19132        1.87347
H          8.92958       -3.95513        0.28516
H          8.68650       -6.21355        1.38061
H          8.74986       -5.45165        2.96763
H         11.05858       -4.59770        2.46178
H         11.00702       -5.38240        0.87729
H         10.63081       -7.61136        2.00246
H         10.79624       -6.85208        3.58225
H         12.98560       -6.87903        1.41249
H         13.30579       -4.97903        2.98310
H         13.99124       -5.58450        5.21859
H         11.31533       -9.24353        3.50716
H         12.67230      -10.36463        3.54145
H         12.70794      -10.57946        1.10472
H         11.63755       -9.19502        0.87553
H         15.18407       -7.73196        2.29988
H         14.39021       -8.93925        1.29811
H         14.48143      -11.41783        2.01619
H         15.78952      -13.13116        3.20285
H         17.52210      -12.46692        4.86670
H         17.94481      -10.05147        5.31115
H         16.62852       -8.32218        4.12729
