53

C          1.75860        1.30505        4.66083
C          3.17349        1.27280        4.07836
C          3.56853        2.57489        3.37191
C          4.99496        2.55809        2.81472
C          5.39559        3.86194        2.11599
C          6.82882        3.83092        1.57372
C          7.21485        5.11248        0.85539
O          8.57120        4.99098        0.39971
C          9.00348        6.08055       -0.38382
C         10.46752        5.84115       -0.79517
C         10.87952        6.77107       -1.94878
C         10.41293        6.27144       -3.32153
N         10.92962        4.86017       -3.48021
C         10.33555        3.83621       -2.49473
C         10.81881        4.37233       -1.12278
C          8.81685        3.52819       -2.55744
C          8.16922        3.39188       -3.93780
O          8.03425        4.69792       -4.51406
C          8.58927        2.22079       -1.77411
Br        11.08862        4.28846       -5.34485
H          1.50616        0.35860        5.15778
H          1.00660        1.47936        3.87681
H          1.65155        2.10899        5.40426
H          3.26244        0.43315        3.36794
H          3.89861        1.06454        4.88334
H          3.46229        3.41836        4.07683
H          2.85627        2.77639        2.55198
H          5.10183        1.71735        2.10632
H          5.70473        2.35300        3.63516
H          5.28687        4.70301        2.82197
H          4.69108        4.06518        1.29044
H          6.94456        2.98387        0.87730
H          7.53972        3.65930        2.39803
H          7.12810        5.98785        1.52653
H          6.55103        5.29438       -0.01367
H          8.94754        7.02984        0.18417
H          8.34441        6.20797       -1.26902
H         11.08602        6.09807        0.07824
H         11.97621        6.88790       -1.96526
H         10.47197        7.78469       -1.81209
H         10.84656        6.86887       -4.13150
H          9.32716        6.22679       -3.45516
H         11.93144        4.88492       -3.24259
H         10.88709        2.91328       -2.73146
H         11.91495        4.25631       -1.07648
H         10.40876        3.71790       -0.34416
H          8.27072        4.32755       -2.04050
H          7.17652        2.93556       -3.79297
H          8.75019        2.71906       -4.59455
H          7.52042        4.62968       -5.33369
H          9.05292        1.36206       -2.28213
H          7.51332        2.02355       -1.69194
H          8.98365        2.27442       -0.75363
