39

O          2.48418       -1.53345       -1.06370
C          2.38931       -0.33379       -1.86156
C          3.17207        0.77482       -1.16998
N          4.65227        0.70848       -1.32080
C          5.39818       -0.03378       -0.42742
N          6.70127        0.20784       -0.25436
C          7.65670       -0.68691        0.40511
C          7.93745       -2.01004       -0.33182
C          8.37462       -1.84123       -1.80136
S          7.10748       -2.44295       -2.93925
O          7.06165       -3.88591       -2.88610
O          5.90458       -1.65986       -2.75566
O          7.73474       -1.98444       -4.36019
N          4.76189       -0.95203        0.29881
C          5.13446        1.31902       -2.51931
O          4.36890        1.68460       -3.37921
O          6.47342        1.44983       -2.54892
C          7.03508        1.98053       -3.81241
C          7.09423        3.49301       -3.79386
H          2.27879       -2.30621       -1.61245
H          1.33610       -0.01724       -1.93051
H          2.77734       -0.50264       -2.87581
H          2.94830        0.79111       -0.09490
H          2.86852        1.73551       -1.59803
H          7.07276        0.94322       -0.85280
H          7.33189       -0.89326        1.43690
H          8.58309       -0.10553        0.50026
H          7.06655       -2.67900       -0.27307
H          8.73513       -2.52263        0.22294
H          9.27342       -2.42525       -2.03442
H          8.56205       -0.79591       -2.08239
H          8.05023       -2.78475       -4.82452
H          3.87025       -1.34461       -0.06521
H          5.25323       -1.44131        1.03596
H          6.42059        1.59252       -4.63286
H          8.03079        1.52225       -3.85258
H          6.08998        3.93238       -3.75840
H          7.58063        3.84025       -4.71604
H          7.68190        3.86286       -2.94351
