57

C          3.23624        1.09641        0.73500
C          2.91243        0.74351       -0.71866
C          4.17011        0.44253       -1.54649
C          3.82426        0.13266       -2.99420
O          5.03614       -0.01963       -3.82022
C          5.53134       -1.24889       -3.95304
O          5.07862       -2.27628       -3.48464
C          6.71296       -1.25036       -4.92568
N          7.07290       -2.62942       -5.26038
C          8.37590       -2.69141       -5.57064
N          9.01888       -3.80607       -5.92713
C          8.37504       -5.11625       -6.08250
C          9.43696       -6.17169       -6.39213
C          8.83025       -7.56045       -6.55050
F          8.18999       -7.95308       -5.41688
F          7.92170       -7.59410       -7.56002
F          9.78799       -8.47093       -6.82230
N          8.93334       -1.46786       -5.49890
C          8.10673       -0.58036       -4.63925
C          8.77160       -0.38325       -3.22039
C          9.21464       -1.71778       -2.51010
C         10.26432       -1.49400       -1.40510
C          8.06282       -2.54907       -1.92176
C         10.00263        0.51794       -3.49533
O         10.96681       -0.16967       -4.32341
C          7.84596        0.46583       -2.33156
H          2.32151        1.31077        1.30241
H          3.88146        1.98490        0.79700
H          3.75531        0.27017        1.24233
H          2.36044        1.57575       -1.18569
H          2.23737       -0.12715       -0.74775
H          4.70729       -0.41273       -1.10474
H          4.84968        1.30936       -1.51434
H          3.29610        0.96708       -3.47215
H          3.22979       -0.78502       -3.08938
H          6.33277       -0.75896       -5.83875
H          6.48447       -3.40354       -4.96378
H         10.01334       -3.73159       -6.11289
H          7.63179       -5.07036       -6.89331
H          7.85520       -5.38237       -5.14881
H         10.17754       -6.23385       -5.58138
H          9.96377       -5.94037       -7.32953
H          9.94605       -1.31152       -5.45339
H          8.06908        0.41723       -5.09694
H          9.71259       -2.33676       -3.27441
H          9.89851       -0.82026       -0.61665
H         11.21074       -1.09848       -1.79273
H         10.49072       -2.45323       -0.92131
H          7.60860       -2.05525       -1.05137
H          8.45711       -3.51075       -1.56602
H          7.25596       -2.77226       -2.62627
H         10.46342        0.80280       -2.53847
H          9.66798        1.44226       -3.99807
H         11.73442        0.40748       -4.45523
H          6.98280       -0.10366       -1.97803
H          7.46833        1.34851       -2.86541
H          8.38607        0.81968       -1.44356
