92

C          0.57303       -0.38362        0.52669
C          2.09845       -0.35259        0.40125
C          2.58623       -0.25853       -1.04859
C          4.11142       -0.22226       -1.18468
C          4.60064       -0.11109       -2.63256
C          6.12666       -0.06424       -2.75727
C          6.63148        0.05520       -4.19907
C          8.15905        0.10776       -4.30131
C          8.68766        0.23237       -5.73395
C         10.21678        0.28838       -5.80608
C         10.77620        0.39562       -7.22871
C         12.30751        0.42581       -7.26542
C         12.90292        0.47671       -8.67684
C         14.43448        0.45592       -8.67278
C         15.06750        0.40341      -10.06854
C         16.60156        0.33013       -9.99602
C         17.36400        0.00829      -11.29477
C         17.04601       -1.39996      -11.91724
C         16.19052       -1.04659      -13.07584
N         16.18617        0.21382      -13.33334
C         17.02917        1.02642      -12.42823
C         18.15337        1.78471      -13.22700
C         19.07599        0.84732      -14.09123
C         19.83510        1.60646      -15.19782
C         20.11063        0.03052      -13.29292
C         17.39755        2.80332      -14.12443
O         16.50911        2.18569      -15.08282
C         18.94446        2.62325      -12.20542
C         16.49565       -2.56084      -11.05025
C         17.53187       -3.57753      -10.51732
C         18.39016       -3.13946       -9.31012
N         19.45213       -2.16372       -9.50577
O         16.83283       -4.78441      -10.20416
H          0.25498       -0.45076        1.57628
H          0.14616       -1.24702       -0.00536
H          0.11877        0.52302        0.09953
H          2.52599       -1.25525        0.87003
H          2.49850        0.50136        0.97395
H          2.15640        0.64414       -1.51814
H          2.18769       -1.11369       -1.62292
H          4.54066       -1.12956       -0.72383
H          4.50863        0.62706       -0.60097
H          4.16833        0.79380       -3.09507
H          4.21100       -0.96319       -3.21714
H          6.55739       -0.97035       -2.29541
H          6.51290        0.78535       -2.16659
H          6.20201        0.96052       -4.66329
H          6.25297       -0.79611       -4.79205
H          8.58523       -0.79845       -3.83560
H          8.53327        0.95628       -3.70176
H          8.26373        1.13682       -6.20460
H          8.32315       -0.61958       -6.33469
H         10.63464       -0.61202       -5.32169
H         10.57745        1.14401       -5.20844
H         10.37664        1.30228       -7.71570
H         10.41243       -0.45641       -7.82982
H         12.69705       -0.46683       -6.74464
H         12.66966        1.29257       -6.68538
H         12.54368        1.38011       -9.19993
H         12.52751       -0.38227       -9.26127
H         14.77980       -0.42070       -8.09632
H         14.81608        1.33813       -8.13097
H         14.74840        1.28800      -10.64580
H         14.65535       -0.46759      -10.60654
H         16.88790       -0.41062       -9.23261
H         16.98933        1.29102       -9.61821
H         18.43462        0.06422      -11.07212
H         17.97364       -1.79019      -12.39079
H         15.63700       -1.74828      -13.70530
H         15.80063        0.67366      -14.17589
H         16.37935        1.82009      -12.02636
H         18.41522        0.12856      -14.60594
H         20.47166        2.40486      -14.79030
H         19.17852        2.05601      -15.95497
H         20.49582        0.91151      -15.73172
H         20.86474        0.67835      -12.82514
H         20.64566       -0.64397      -13.97438
H         19.67736       -0.59547      -12.50305
H         18.10785        3.46637      -14.63445
H         16.76206        3.43789      -13.48764
H         16.92642        2.18079      -15.95730
H         19.43810        2.00401      -11.44711
H         18.28615        3.32951      -11.67921
H         19.72469        3.21269      -12.70418
H         15.80913       -3.15748      -11.66887
H         15.89164       -2.17381      -10.21803
H         18.21202       -3.84604      -11.34793
H         18.85071       -4.05935       -8.91684
H         17.72324       -2.76267       -8.51349
H         20.13320       -2.45036      -10.20676
H         19.12107       -1.22782       -9.71857
H         16.53415       -4.74886       -9.28002
