72

C          7.23932       -0.91011        3.67335
C          6.59878       -1.50233        2.41628
C          7.22956       -0.98767        1.11649
C          6.58183       -1.58456       -0.13887
C          7.19151       -1.04631       -1.42014
O          6.50762       -1.65522       -2.53823
C          6.82944       -1.09354       -3.78690
C          8.25232       -1.38547       -4.25168
C          9.00906       -0.33095       -4.75421
N         10.26277       -0.55216       -5.16540
N         10.91179       -1.70174       -5.09323
C         10.23114       -2.74237       -4.60646
C          8.86527       -2.65345       -4.20246
C          8.08162       -3.86756       -3.82153
C          7.13016       -4.28522       -4.96165
O          6.85197       -3.57623       -5.90958
O          6.65179       -5.50702       -4.71354
C          5.65446       -6.03759       -5.65848
C          6.30525       -6.87922       -6.74435
C          5.24792       -7.50734       -7.66347
C          5.84617       -8.38953       -8.76475
C          4.78589       -9.01539       -9.67841
C          5.37823       -9.90266      -10.77593
C         11.06061       -3.98771       -4.48123
C         11.44162       -4.22272       -3.00787
O         10.77084       -3.81662       -2.07680
O         12.57723       -4.91692       -2.93270
C         13.06536       -5.26995       -1.58576
C         12.66275       -6.68703       -1.21251
C         13.25665       -7.77597       -2.11462
C         12.86549       -9.18856       -1.67512
H          6.76020       -1.29450        4.58353
H          7.14991        0.18615        3.69027
H          8.30980       -1.15640        3.73250
H          5.51998       -1.27413        2.40791
H          6.67517       -2.60231        2.44423
H          8.31000       -1.21473        1.12046
H          7.14869        0.11309        1.08638
H          5.50155       -1.36983       -0.14643
H          6.68592       -2.68192       -0.12882
H          8.27303       -1.27806       -1.46610
H          7.07398        0.05266       -1.48621
H          6.68187        0.00375       -3.77682
H          6.13148       -1.52147       -4.52256
H          8.63686        0.68965       -4.84872
H         10.81983        0.20711       -5.56356
H          7.43833       -3.63164       -2.95910
H          8.71133       -4.71337       -3.53511
H          5.09490       -5.19129       -6.07728
H          4.99373       -6.63861       -5.02095
H          6.91342       -7.66916       -6.27488
H          6.98809       -6.24878       -7.33634
H          4.64302       -6.70814       -8.12511
H          4.54754       -8.10840       -7.05802
H          6.45097       -9.19034       -8.30435
H          6.54695       -7.79165       -9.37361
H          4.18400       -8.21263      -10.13679
H          4.08399       -9.60576       -9.06552
H          6.05660       -9.33343      -11.42869
H          4.59177      -10.33237      -11.41061
H          5.95307      -10.73782      -10.34920
H         11.96605       -3.89119       -5.08999
H         10.51565       -4.87578       -4.83534
H         12.67194       -4.53043       -0.87844
H         14.15449       -5.16406       -1.67291
H         11.56233       -6.75775       -1.18882
H         12.99472       -6.84309       -0.17189
H         14.35517       -7.67912       -2.11608
H         12.93579       -7.60835       -3.15516
H         13.20335       -9.39723       -0.64963
H         13.31182       -9.94718       -2.33144
H         11.77484       -9.32928       -1.69911
