92

C          1.75131        4.41338        2.13203
C          3.24813        4.17146        1.92352
C          3.61931        3.88557        0.46434
C          5.11834        3.66121        0.24232
C          5.48992        3.40458       -1.22152
C          6.99334        3.21815       -1.45096
C          7.36277        3.00558       -2.92218
C          8.87038        2.87684       -3.16608
C          9.22127        2.73356       -4.65047
C         10.73160        2.67952       -4.90622
C         11.01497        2.57568       -6.40770
N         12.47249        2.63302       -6.70026
N         12.93307        3.88918       -6.74015
C         14.22660        4.09008       -6.95566
C         15.11840        3.01489       -7.17609
C         14.60984        1.73486       -7.11845
C         13.24439        1.53008       -6.85481
C         12.65344        0.15793       -6.75811
C         12.09066       -0.36204       -8.10596
C         11.37491       -1.71319       -7.94785
P          9.81033       -1.62258       -6.99339
O          9.59556       -0.30352       -6.32936
O          8.74224       -2.06688       -8.08608
C          7.31626       -2.13800       -7.73747
C          6.51844       -2.13013       -9.02266
O          9.79761       -2.86966       -5.97944
C         10.39317       -2.74026       -4.65438
C         10.00799       -3.95947       -3.84407
C         14.66458        5.52255       -6.99197
C         15.29457        5.83758       -8.36812
O         15.53336        4.90865       -9.15029
N         15.55860        7.13937       -8.64171
C         16.07922        7.49751       -9.97465
C         17.56968        7.85920       -9.97918
C         18.50115        6.72152       -9.54572
C         19.97971        7.11169       -9.60340
C         15.27601        8.23966       -7.72401
H          1.51874        4.61813        3.18601
H          1.15836        3.53855        1.82587
H          1.39918        5.27231        1.54149
H          3.57753        3.32822        2.55409
H          3.81583        5.04961        2.27537
H          3.27962        4.72550       -0.16735
H          3.06006        3.00053        0.11254
H          5.45743        2.81171        0.86113
H          5.67558        4.54146        0.60902
H          5.13166        4.24699       -1.83924
H          4.94963        2.51343       -1.58661
H          7.35410        2.36320       -0.85256
H          7.53071        4.10304       -1.06661
H          6.97298        3.84973       -3.51778
H          6.85161        2.10536       -3.30554
H          9.26302        2.00883       -2.60829
H          9.38200        3.76280       -2.75076
H          8.79321        3.58609       -5.20598
H          8.75555        1.82410       -5.06155
H         11.16929        1.81091       -4.38724
H         11.22230        3.58169       -4.50699
H         10.58777        3.43116       -6.94379
H         10.60050        1.64420       -6.81054
H         16.17121        3.20523       -7.37157
H         15.24655        0.86292       -7.26548
H         11.85143        0.13708       -6.00831
H         13.44827       -0.52049       -6.41480
H         12.91477       -0.46817       -8.82719
H         11.39759        0.37901       -8.53123
H         12.02758       -2.45037       -7.45543
H         11.12239       -2.12930       -8.93271
H          7.06905       -1.27675       -7.09927
H          7.16256       -3.06363       -7.16400
H          6.68297       -1.20207       -9.58508
H          5.44767       -2.20503       -8.78908
H          6.78890       -2.98142       -9.66084
H         10.02856       -1.80913       -4.19685
H         11.48929       -2.66848       -4.76786
H          8.91798       -4.02496       -3.73466
H         10.45106       -3.89319       -2.84105
H         10.36738       -4.88095       -4.31969
H         15.41339        5.69961       -6.20183
H         13.80196        6.16472       -6.77503
H         15.47932        8.34355      -10.34478
H         15.89305        6.63576      -10.62713
H         17.74831        8.74722       -9.34801
H         17.81945        8.17374      -11.00575
H         18.31673        5.84095      -10.18168
H         18.24542        6.40992       -8.51891
H         20.28092        7.38960      -10.62389
H         20.62473        6.28282       -9.28254
H         20.19452        7.97107       -8.95095
H         15.39371        7.93669       -6.67817
H         14.26043        8.64222       -7.87027
H         15.99336        9.04782       -7.90839
