117

C          0.54182      -13.04039        6.23564
C          2.06216      -12.95655        6.38982
C          2.55577      -11.56487        6.80107
C          4.07896      -11.46412        6.92580
C          4.56981      -10.09222        7.39909
C          6.09551       -9.98208        7.47882
C          6.59182       -8.63340        8.01015
C          8.11842       -8.50909        8.01925
C          8.63390       -7.19127        8.60767
C         10.15629       -7.05217        8.51880
C         10.71292       -5.75788        9.12226
C         12.22926       -5.63825        8.94378
C         12.85327       -4.37059        9.53779
C         14.36251       -4.30984        9.27558
C         15.05628       -3.07880        9.87358
C         16.59390       -3.08477        9.76035
C         17.05747       -3.15881        8.29816
O         18.46536       -3.08989        8.25740
C         18.98464       -3.19673        6.91998
C         20.49870       -3.10886        6.97133
C         21.14118       -3.25976        5.58828
C         22.67424       -3.26025        5.61617
C         23.28496       -3.38985        4.21755
C         24.81358       -3.48872        4.19345
C         25.37327       -3.56218        2.76868
C         26.88700       -3.77972        2.68722
C         27.39974       -3.87400        1.24618
C         28.90610       -4.12539        1.13118
C         29.38764       -4.29595       -0.31424
C         30.89060       -4.56125       -0.42972
N         17.16418       -4.22418       10.53062
C         18.11194       -3.81159       11.39101
N         18.83018       -4.65384       12.14813
N         18.20726       -2.48292       11.43597
C         17.25214       -1.87432       10.49592
C         19.00962       -1.69825       12.38641
C         20.53041       -1.81382       12.20482
C         21.05182       -1.47483       10.80551
C         22.57535       -1.62547       10.70769
C         23.14698       -1.30372        9.32301
C         24.66471       -1.47828        9.23876
H          0.21914      -14.05309        5.95730
H          0.18145      -12.35177        5.45699
H          0.02965      -12.77441        7.17232
H          2.54591      -13.24812        5.44217
H          2.39866      -13.69386        7.13829
H          2.09007      -11.28424        7.76238
H          2.20009      -10.82012        6.06707
H          4.54057      -11.70167        5.95105
H          4.43969      -12.23886        7.62537
H          4.13445       -9.87248        8.38990
H          4.18360       -9.31070        6.72123
H          6.52457      -10.15961        6.47663
H          6.48752      -10.79111        8.12027
H          6.20384       -8.47938        9.03247
H          6.16433       -7.81857        7.39973
H          8.49530       -8.61729        6.98662
H          8.55084       -9.35285        8.58572
H          8.31492       -7.11033        9.66156
H          8.15908       -6.34407        8.08230
H         10.46046       -7.11473        7.45887
H         10.63053       -7.91627        9.01724
H         10.45960       -5.71096       10.19564
H         10.21795       -4.88919        8.65456
H         12.46595       -5.68302        7.86593
H         12.71601       -6.52225        9.39342
H         12.66308       -4.33320       10.62427
H         12.36706       -3.47741        9.10977
H         14.52799       -4.34793        8.18696
H         14.81871       -5.22744        9.68834
H         14.80420       -2.99685       10.94338
H         14.67880       -2.16139        9.39254
H         16.59224       -2.32177        7.73882
H         16.69822       -4.09772        7.83373
H         18.56183       -2.38564        6.29677
H         18.65872       -4.15905        6.47945
H         20.87632       -3.89221        7.64989
H         20.78184       -2.14117        7.41387
H         20.78997       -2.44648        4.93029
H         20.79272       -4.19771        5.12207
H         23.02791       -4.08973        6.25389
H         23.03833       -2.33354        6.09312
H         22.96689       -2.52761        3.60559
H         22.86230       -4.28083        3.72063
H         25.13105       -4.38187        4.76002
H         25.25244       -2.62342        4.72061
H         25.10811       -2.63658        2.22836
H         24.86571       -4.37954        2.22639
H         27.15233       -4.70454        3.22923
H         27.40896       -2.96103        3.21308
H         27.14150       -2.94652        0.70535
H         26.85828       -4.68398        0.72572
H         29.17064       -5.02844        1.70979
H         29.45623       -3.29327        1.60499
H         29.12608       -3.39375       -0.89302
H         28.83022       -5.12467       -0.78311
H         31.47741       -3.73306       -0.00539
H         31.19896       -4.68379       -1.47713
H         31.17629       -5.47703        0.10934
H         17.20439       -5.15079       10.11937
H         18.66032       -5.64995       12.11734
H         19.57819       -4.31588       12.73903
H         17.78374       -1.21417        9.79760
H         16.50246       -1.29214       11.05340
H         18.71577       -1.97464       13.41310
H         18.70000       -0.65462       12.24375
H         20.88601       -2.82177       12.48322
H         20.98284       -1.14259       12.95232
H         20.76307       -0.44055       10.55000
H         20.56516       -2.12367       10.05878
H         22.85308       -2.65948       10.98034
H         23.05582       -0.97763       11.46127
H         22.87624       -0.27010        9.04910
H         22.66611       -1.95306        8.57563
H         25.18695       -0.82184        9.94978
H         25.03759       -1.24133        8.23343
H         24.96050       -2.51349        9.46449
