79

C          1.83479       -8.04612       -9.40974
C          3.33402       -7.73872       -9.37390
C          3.65710       -6.33132       -8.85915
C          5.15623       -6.01653       -8.83808
C          5.48814       -4.59815       -8.36216
C          6.98862       -4.28857       -8.37832
C          7.33805       -2.86611       -7.92779
C          8.83914       -2.56462       -7.98963
C          9.21125       -1.14617       -7.54517
C         10.71496       -0.86162       -7.63148
C         11.10280        0.55022       -7.17290
C         12.61471        0.82034       -7.14136
C         13.28536        0.84985       -8.52233
C         14.80452        1.04996       -8.43098
C         15.47930        1.16807       -9.80297
N         15.33851       -0.07930      -10.58962
C         16.48409       -0.77489      -10.59683
N         16.63501       -2.02900      -11.04623
N         17.49482       -0.04966      -10.08577
C         17.03150        1.35588       -9.87893
C         17.73678        2.09720       -8.73859
C         17.94229        1.36648       -7.39893
O         18.62037        2.19079       -6.46297
C         18.87657       -0.49054      -10.13619
O         19.17098       -0.90057      -11.45684
C         20.53605       -1.36041      -11.61587
C         20.71385       -1.83867      -13.04581
C         22.13215       -2.35550      -13.32380
C         22.30979       -2.83026      -14.76825
H          1.63968       -9.05722       -9.79294
H          1.29694       -7.33665      -10.05626
H          1.38873       -7.98005       -8.40617
H          3.75780       -7.85759      -10.38588
H          3.84903       -8.48327       -8.74329
H          3.24203       -6.20997       -7.84293
H          3.13648       -5.58663       -9.48703
H          5.57032       -6.16312       -9.85174
H          5.67436       -6.74864       -8.19372
H          5.09370       -4.45106       -7.34146
H          4.95841       -3.86710       -8.99800
H          7.37885       -4.45075       -9.39911
H          7.51788       -5.01444       -7.73593
H          6.97425       -2.70696       -6.89778
H          6.79349       -2.13926       -8.55570
H          9.19677       -2.72737       -9.02247
H          9.38271       -3.29511       -7.36453
H          8.86976       -0.98449       -6.50822
H          8.66351       -0.41191       -8.16119
H         11.04348       -1.03032       -8.67258
H         11.25951       -1.60161       -7.01769
H         10.70432        0.71421       -6.15894
H         10.60646        1.29967       -7.81358
H         13.10571        0.05280       -6.51781
H         12.80172        1.78440       -6.64067
H         12.83925        1.65712       -9.12906
H         13.05921       -0.09451       -9.04777
H         15.25072        0.21790       -7.86268
H         15.00963        1.97320       -7.86631
H         15.00607        1.98655      -10.36421
H         14.43607       -0.51429      -10.75039
H         15.84416       -2.50709      -11.46194
H         17.56297       -2.25906      -11.40469
H         17.24154        1.90724      -10.81251
H         17.18433        3.03125       -8.55384
H         18.72392        2.42173       -9.10810
H         18.47417        0.40837       -7.54831
H         16.98375        1.12389       -6.92511
H         19.54792        2.29106       -6.72952
H         19.02568       -1.32763       -9.42511
H         19.51344        0.35219       -9.81954
H         20.73330       -2.17440      -10.89325
H         21.22268       -0.52592      -11.38425
H         20.47411       -1.00965      -13.73059
H         19.98239       -2.63897      -13.24955
H         22.36476       -3.18154      -12.63155
H         22.86154       -1.55828      -13.10503
H         21.61812       -3.65075      -15.00863
H         23.33017       -3.19520      -14.94201
H         22.12186       -2.01585      -15.48278
