122

C          0.29587       -5.64505       19.21689
C          1.82011       -5.54589       19.11431
C          2.36702       -5.97257       17.74736
C          3.89180       -5.87584       17.63702
C          4.44073       -6.28418       16.26603
C          5.96635       -6.18829       16.16589
C          6.52727       -6.59922       14.80079
C          8.05499       -6.51708       14.72108
C          8.63217       -6.94859       13.36916
C         10.16282       -6.90425       13.31971
C         10.75500       -7.36665       11.98479
C         12.28689       -7.35692       11.96237
C         12.88941       -7.86021       10.64730
C         14.42158       -7.87762       10.64326
C         15.02580       -8.39141        9.33320
C         16.55801       -8.41221        9.32781
C         17.14937       -8.89390        7.99724
C         18.68007       -8.82473        7.90662
C         19.42733       -9.80766        8.82080
C         20.94423       -9.66320        8.66621
C         21.83694      -10.63954        9.45388
C         23.33651      -10.28678        9.31970
C         23.72786       -8.88252        9.78227
O         25.12670       -8.87537        9.97074
C         25.62113       -7.58296       10.32568
C         27.13255       -7.67182       10.47944
O         27.56258       -6.38795       10.88815
C         28.97652       -6.28080       11.02855
C         29.27818       -4.85066       11.45278
O         30.68163       -4.73447       11.59958
C         31.07933       -3.42203       11.96963
C         21.60748      -12.12931        9.06010
N         21.66291      -12.82831       10.35152
C         21.51579      -11.95717       11.36943
N         21.45851      -12.28843       12.65570
C         21.52734      -13.64006       13.21772
C         22.26767      -13.57082       14.55083
O         21.64922      -12.54847       15.31151
C         22.28176      -12.34328       16.58680
C         21.48883      -11.34830       17.40439
O         20.30421      -11.96459       17.86708
C         19.54798      -11.12593       18.73910
C         18.37648      -11.94179       19.26759
O         17.62648      -11.09268       20.11653
C         16.52043      -11.75434       20.71444
N         21.45731      -10.69559       10.90024
H         -0.06435       -5.32785       20.20538
H         -0.04920       -6.67701       19.05339
H         -0.19686       -5.01063       18.46494
H          2.28421       -6.16614       19.90012
H          2.13725       -4.50993       19.32305
H          1.90345       -5.35107       16.96069
H          2.05005       -7.00933       17.53605
H          4.35414       -6.50700       18.41679
H          4.20817       -4.84179       17.86169
H          3.98229       -5.65113       15.48584
H          4.12424       -7.31760       16.03886
H          6.42185       -6.81937       16.94972
H          6.28176       -5.15450       16.39286
H          6.08382       -5.96249       14.01506
H          6.20557       -7.63012       14.56953
H          8.49282       -7.14462       15.51778
H          8.37705       -5.48417       14.94232
H          8.21968       -6.30653       12.57110
H          8.29073       -7.97307       13.13767
H         10.56835       -7.53388       14.13188
H         10.50638       -5.87734       13.53640
H         10.37166       -6.72715       11.17043
H         10.39492       -8.38645       11.76115
H         12.66435       -7.97712       12.79503
H         12.64938       -6.33315       12.16245
H         12.52969       -7.23149        9.81413
H         12.51334       -8.87764       10.43987
H         14.77970       -8.50187       11.48156
H         14.79857       -6.85924       10.84378
H         14.67037       -7.76448        8.49707
H         14.64614       -9.40783        9.12861
H         16.90922       -9.04983       10.15820
H         16.93648       -7.39704        9.54383
H         16.73003       -8.28011        7.18365
H         16.81408       -9.92640        7.79436
H         19.00984       -7.79626        8.13599
H         18.98686       -9.01406        6.86450
H         19.09944      -10.83330        8.57810
H         19.14759       -9.64023        9.87263
H         21.22593       -8.63503        8.94409
H         21.22537       -9.76241        7.60420
H         23.63002      -10.41405        8.26701
H         23.93147      -11.00844        9.90265
H         23.21838       -8.60788       10.73511
H         23.43316       -8.11777        9.03881
H         25.17017       -7.24421       11.27807
H         25.36421       -6.84250        9.54603
H         27.59778       -7.96590        9.51859
H         27.39436       -8.44345       11.23038
H         29.48402       -6.50888       10.07254
H         29.35060       -6.99049       11.79067
H         28.75726       -4.62331       12.40416
H         28.89760       -4.14609       10.68702
H         32.17157       -3.43232       12.06204
H         30.63692       -3.12254       12.93772
H         30.78740       -2.68000       11.20383
H         22.39423      -12.49234        8.38798
H         20.62851      -12.27958        8.58230
H         21.42078      -13.80778       10.44427
H         21.33198      -11.56067       13.35915
H         22.07430      -14.30449       12.53498
H         20.50976      -14.03434       13.36688
H         23.33903      -13.34395       14.38282
H         22.19879      -14.55117       15.05668
H         23.31005      -11.96607       16.43468
H         22.33542      -13.30293       17.13042
H         21.26178      -10.44795       16.79664
H         22.12069      -11.02000       18.25438
H         19.17592      -10.23241       18.20246
H         20.17310      -10.77808       19.58310
H         18.75316      -12.82629       19.81837
H         17.75991      -12.31048       18.42347
H         16.01594      -11.02032       21.35322
H         16.84684      -12.60983       21.33404
H         15.80783      -12.12182       19.95307
H         21.65157       -9.90557       11.50807
