45

C          0.83669        0.34787       -1.25859
C          1.93934        0.08978       -0.83455
C          3.27077       -0.17835       -0.31078
C          3.87403        1.04521        0.41182
C          5.26283        0.74942        0.99178
C          5.96058        1.98668        1.58306
O          7.37009        1.78866        1.79051
C          7.67054        0.91183        2.85438
C          7.12225        1.41987        4.20759
N          5.60176        1.62177        4.03894
C          5.33383        2.54316        2.86799
C          4.88924        2.07279        5.30313
C          4.99220        1.06191        6.44689
C          4.13292        1.51697        7.61056
C          4.66726        2.36097        8.59433
C          3.87053        2.80608        9.65116
C          2.53270        2.41035        9.73414
C          1.99332        1.56808        8.75791
C          2.78983        1.12504        7.69998
C          7.74020        2.64564        4.67492
C          8.30022        3.64389        5.06215
H         -0.13727        0.55908       -1.64809
H          3.93567       -0.48397       -1.13624
H          3.22614       -1.03877        0.37938
H          3.17085        1.36233        1.19873
H          3.93689        1.88204       -0.30095
H          5.92603        0.37198        0.19811
H          5.18320       -0.07417        1.72585
H          5.91193        2.79595        0.83870
H          8.76370        0.85359        2.92188
H          7.28575       -0.11049        2.67459
H          7.24045        0.62225        4.95723
H          5.22521        0.69270        3.79584
H          5.77841        3.51087        3.13130
H          4.24576        2.65369        2.78165
H          3.84075        2.22778        5.01412
H          5.32312        3.04310        5.57634
H          6.03466        0.96241        6.78240
H          4.65579        0.06920        6.10248
H          5.71649        2.66187        8.54196
H          4.29694        3.45632       10.41560
H          1.91265        2.75228       10.56291
H          0.95309        1.24823        8.82468
H          2.36386        0.45715        6.94688
H          8.80709        4.52545        5.40212
