61

F          2.29659        0.29733        1.05233
C          2.40913       -0.39553       -0.16505
C          2.96492        0.53686       -1.23032
C          4.37493        1.04103       -0.89195
C          4.91455        2.01988       -1.93005
N          6.30654        2.44500       -1.64550
C          6.48200        3.73992       -1.97782
N          7.64818        4.38008       -1.99398
C          8.94611        3.74039       -1.76234
C         10.06399        4.79402       -1.83422
C         11.41384        4.17243       -1.75192
C         12.31226        4.33706       -0.77302
F         12.09324        5.10050        0.29336
F         13.50593        3.77791       -0.75048
F         11.74326        3.36256       -2.79418
N          5.29858        4.32332       -2.28369
C          4.19987        3.39050       -1.97790
C          5.09590        5.76536       -2.32865
O          6.09101        6.30414       -3.16927
C          5.94387        7.72956       -3.39648
C          7.11987        8.20336       -4.23272
C          6.95867        9.65830       -4.69457
C          8.16784       10.17642       -5.48264
C          7.96463       11.58708       -6.04625
C          9.19541       12.13966       -6.77311
C          8.96977       13.52242       -7.39592
C         10.21233       14.08433       -8.09133
H          1.40661       -0.75804       -0.43479
H          3.07035       -1.25946        0.01070
H          2.26465        1.38000       -1.34720
H          2.97068       -0.00671       -2.18999
H          5.06122        0.18027       -0.82775
H          4.37855        1.52401        0.09713
H          4.88993        1.55703       -2.93306
H          7.07313        1.78153       -1.69859
H          7.60309        5.31868       -2.40536
H          9.12779        2.96377       -2.52434
H          8.94887        3.26263       -0.77053
H          9.95165        5.52384       -1.02077
H          9.98569        5.34272       -2.78978
H          3.42646        3.43766       -2.75345
H          3.74600        3.63372       -1.00084
H          5.15817        6.20543       -1.31022
H          4.08105        5.94145       -2.72773
H          5.90318        8.25379       -2.42426
H          4.98659        7.90117       -3.92085
H          7.21531        7.54389       -5.11053
H          8.04935        8.09560       -3.64768
H          6.78594       10.31138       -3.82169
H          6.05315        9.73890       -5.32048
H          8.39044        9.48154       -6.31163
H          9.05912       10.16590       -4.83029
H          7.68676       12.27336       -5.22693
H          7.10396       11.57923       -6.73817
H          9.50403       11.43182       -7.56295
H         10.04337       12.19144       -6.06716
H          8.63674       14.22390       -6.61217
H          8.13804       13.46123       -8.11821
H         11.04684       14.20405       -7.38439
H         10.01240       15.06837       -8.53660
H         10.55554       13.41924       -8.89780
