37

C          4.16638       -7.18211        0.46360
C          3.79218       -5.95537       -0.34443
O          4.91185       -5.60339       -1.17728
C          4.67037       -4.51900       -2.05257
C          4.95642       -3.14225       -1.39591
C          6.39743       -2.93838       -1.07236
N          7.28692       -2.22010       -1.88282
C          8.51310       -2.24585       -1.33760
N          8.43919       -2.95159       -0.20706
C          7.14380       -3.40363       -0.00956
C          6.77476       -4.19484        1.20542
C          6.79924       -3.35889        2.46317
C          7.83373       -3.16054        3.28390
Br         9.55137       -3.91716        2.96231
Br         5.16673       -2.46109        2.86894
C          6.99066       -1.58506       -3.17875
C          6.86346       -2.57201       -4.30575
C          5.82590       -2.70881       -5.13915
Br         4.23268       -1.70269       -5.02193
Br         8.38663       -3.68344       -4.58479
H          3.32004       -7.49205        1.09049
H          5.02171       -6.98410        1.12430
H          4.43187       -8.01677       -0.19711
H          3.52422       -5.11284        0.32411
H          2.91536       -6.15636       -0.98591
H          3.62794       -4.52320       -2.41720
H          5.33284       -4.66353       -2.91742
H          4.36930       -3.04576       -0.47142
H          4.59767       -2.34867       -2.06662
H          9.40175       -1.78409       -1.75089
H          9.20626       -3.11987        0.44986
H          7.47285       -5.03934        1.31870
H          5.78111       -4.62705        1.05698
H          7.80264       -2.55407        4.18531
H          7.80701       -0.87756       -3.38103
H          6.06189       -1.00744       -3.08420
H          5.82355       -3.41413       -5.96727
