69

C          0.92046       -9.60425        0.29691
C          2.44842       -9.62951        0.21969
C          3.03372       -8.47236       -0.59709
C          4.56318       -8.49859       -0.67825
C          5.16000       -7.32501       -1.46189
C          6.69086       -7.35799       -1.52977
C          7.29271       -6.16558       -2.28037
C          8.82522       -6.20291       -2.35587
C          9.40613       -4.99270       -3.10158
C         10.93269       -4.91348       -3.16906
C         11.46506       -3.65441       -3.84398
C         12.99830       -3.62296       -3.96267
C         13.70414       -3.41954       -2.60855
C         15.19173       -3.07281       -2.73845
O         15.34503       -1.98187       -3.62295
Si        16.82674       -1.23466       -3.96974
C         16.39228        0.02008       -5.28793
C         17.50663       -0.42417       -2.41783
C         18.03605       -2.52909       -4.61023
C         13.46330       -4.85430       -4.76211
C         12.91951       -6.19931       -4.25743
N         11.44420       -6.14748       -3.92435
C         13.59033       -6.90189       -3.04937
O         12.86207       -7.40633       -2.20702
C         15.08325       -7.01582       -3.02688
H          0.53405      -10.44423        0.89014
H          0.46942       -9.66878       -0.70444
H          0.56004       -8.67478        0.76237
H          2.78021      -10.58597       -0.21865
H          2.87008       -9.60069        1.23856
H          2.70713       -7.51447       -0.15524
H          2.61134       -8.49514       -1.61707
H          4.88675       -9.44821       -1.13957
H          4.98054       -8.50079        0.34389
H          4.83619       -6.37650       -0.99914
H          4.74805       -7.31972       -2.48609
H          7.01361       -8.29697       -2.01317
H          7.10009       -7.38675       -0.50506
H          6.98067       -5.22803       -1.78943
H          6.87826       -6.12699       -3.30269
H          9.12166       -7.14952       -2.84491
H          9.24362       -6.24018       -1.33590
H          9.06930       -4.06832       -2.60644
H          8.99734       -4.94090       -4.12780
H         11.35900       -5.02228       -2.16040
H         11.11150       -2.79116       -3.26177
H         11.00824       -3.55880       -4.84496
H         13.26379       -2.74529       -4.57047
H         13.60622       -4.29372       -1.94171
H         13.20669       -2.58323       -2.09171
H         15.76558       -3.94785       -3.10801
H         15.58659       -2.84055       -1.73229
H         15.64796        0.73975       -4.91930
H         15.98110       -0.46615       -6.18343
H         17.28199        0.58825       -5.59461
H         16.80645        0.32228       -2.01672
H         18.45108        0.09381       -2.64020
H         17.71908       -1.15346       -1.62317
H         17.65297       -3.03471       -5.50831
H         18.26588       -3.29452       -3.85464
H         18.98940       -2.05331       -4.88281
H         14.55974       -4.91804       -4.79486
H         13.14190       -4.73480       -5.80835
H         13.01540       -6.93710       -5.07403
H         11.30463       -6.96077       -3.28544
H         10.87701       -6.27208       -4.77174
H         15.48647       -7.23827       -4.02534
H         15.38111       -7.78920       -2.31154
H         15.52424       -6.05521       -2.71636
