101

C          0.29331        0.48793       -0.24204
O          1.69466        0.76702       -0.22908
C          1.99234        2.08374        0.17109
C          3.51509        2.26306        0.03032
C          3.93146        2.13975       -1.44969
C          5.41717        2.42170       -1.70051
C          5.90120        2.19004       -3.13651
C          6.59559        0.81101       -3.44946
C          5.80211       -0.54426       -3.31271
C          4.55734       -0.80182       -4.23892
F          4.85159       -0.57004       -5.52382
F          4.18060       -2.08356       -4.09598
F          3.51930       -0.01615       -3.87645
F          6.69192       -1.53242       -3.56087
F          5.37640       -0.66857       -2.01369
F          7.09566        0.86551       -4.70559
F          7.64179        0.69900       -2.57137
F          4.89853        2.38575       -4.04985
F          6.87597        3.11845       -3.41275
C          4.27324        1.25934        0.95287
N          5.25392        2.11312        1.63860
C          4.92656        3.41487        1.48990
N          5.54751        4.42592        2.10429
N          3.92837        3.57183        0.61374
C          3.40462        4.88159        0.22060
C          2.42828        5.46534        1.26496
C          2.53705        6.98364        1.41770
S          4.16763        7.54693        2.00146
C          4.85033        8.38200        0.51663
S          4.15179        8.21985       -0.98491
N          5.93665        9.12926        0.78707
C          6.56612        9.24979        2.11036
C          7.78564        8.33457        2.28323
C          8.53934        8.61249        3.58789
C          9.84316        7.81758        3.71837
C         10.63033        8.14254        4.99207
C         11.98414        7.43025        5.07602
C         12.77021        7.75349        6.35175
C         14.15411        7.10141        6.39362
C          6.54166        9.96124       -0.27424
C          5.89291       11.34871       -0.33995
C          6.44203       12.21017       -1.48124
C          5.85812       13.62713       -1.46961
C          6.31099       14.49985       -2.64388
C          5.76124       15.92831       -2.57413
C          6.15504       16.80710       -3.76604
C          5.61453       18.23570       -3.66299
H          0.18479       -0.54957       -0.57458
H         -0.23693        1.15418       -0.94378
H         -0.14640        0.59706        0.76433
H          1.69498        2.26744        1.22440
H          1.45976        2.82205       -0.46240
H          3.32162        2.82678       -2.05482
H          3.64342        1.12989       -1.76255
H          6.06710        1.83507       -1.03644
H          5.63898        3.47998       -1.50018
H          4.77278        0.47103        0.37787
H          3.58862        0.78419        1.67041
H          5.78230        1.78341        2.43842
H          6.30175        4.24227        2.75328
H          5.22045        5.39987        2.00998
H          2.92709        4.77272       -0.75975
H          4.25009        5.56853        0.05423
H          2.60945        4.98165        2.23721
H          1.39109        5.21523        0.99414
H          1.81210        7.35354        2.15376
H          2.38092        7.50278        0.45678
H          5.81372        9.05944        2.88864
H          6.86990       10.30137        2.22578
H          8.46819        8.47815        1.42994
H          7.46092        7.28057        2.24155
H          7.88473        8.40321        4.45170
H          8.77315        9.68991        3.64249
H         10.47722        8.02390        2.83861
H          9.62607        6.73476        3.68453
H         10.02173        7.88674        5.87723
H         10.79328        9.23311        5.04548
H         12.59184        7.70422        4.19543
H         11.83325        6.33797        5.00772
H         12.18353        7.43347        7.22943
H         12.87584        8.84755        6.44408
H         14.08421        6.00613        6.31742
H         14.68024        7.33497        7.32892
H         14.78490        7.45045        5.56267
H          6.42456        9.42979       -1.22706
H          7.61620       10.04016       -0.05265
H          6.04128       11.86888        0.62137
H          4.80654       11.22164       -0.46647
H          6.21467       11.72300       -2.44485
H          7.54293       12.26526       -1.41781
H          6.12990       14.12220       -0.52062
H          4.75582       13.56366       -1.47020
H          5.99489       14.02945       -3.59144
H          7.41418       14.53260       -2.67602
H          6.10802       16.40562       -1.64038
H          4.65974       15.89140       -2.50072
H          5.78976       16.34017       -4.69651
H          7.25462       16.83300       -3.85271
H          4.51581       18.24343       -3.60306
H          5.90336       18.83976       -4.53374
H          5.99610       18.74376       -2.76487
