41

C          0.27452       -1.38086        0.66215
O          1.58298       -0.84335        0.85881
C          2.53742       -1.38666       -0.02599
C          3.86369       -0.67579        0.22883
C          4.98063       -1.16938       -0.71546
N          6.22532       -1.31454        0.15099
C          5.93567       -0.50192        1.40231
C          4.45789       -0.80070        1.66700
C          4.22145       -2.15655        2.35725
C          4.71795       -2.20732        3.81034
O          4.53523       -3.49188        4.39060
C          7.54537       -1.03868       -0.53937
C          8.58189       -2.09877       -0.12200
C         10.01921       -1.70772       -0.54736
N         10.55784       -0.77867        0.45318
O          8.53533       -2.29108        1.28077
H         -0.37940       -0.89339        1.39300
H          0.25959       -2.47217        0.82929
H         -0.09475       -1.16863       -0.35599
H          2.23142       -1.23264       -1.08089
H          2.64241       -2.48286        0.12066
H          3.69694        0.39529        0.03920
H          5.21162       -0.44975       -1.50754
H          4.77603       -2.14499       -1.17498
H          6.27676       -2.28898        0.48276
H          6.10526        0.55251        1.14436
H          6.64514       -0.81140        2.17615
H          4.03442       -0.00739        2.29907
H          4.68865       -2.99612        1.81026
H          3.14015       -2.35792        2.35255
H          4.22264       -1.41682        4.40361
H          5.80206       -2.02207        3.86507
H          3.60131       -3.60465        4.62656
H          7.85019       -0.02363       -0.25135
H          7.37200       -1.06582       -1.62305
H          8.31013       -3.05659       -0.59961
H         10.03267       -1.31667       -1.57815
H         10.62327       -2.62376       -0.53968
H         10.50692        0.19522        0.15901
H         11.53218       -0.97715        0.66888
H          9.24901       -1.68595        1.61128
