80

C          0.83888       -0.36551        0.02152
C          2.36870       -0.31892        0.04337
C          2.97570        0.22558       -1.25436
C          4.50714        0.26267       -1.25196
C          5.10718        0.83766       -2.53924
C          6.63931        0.85878       -2.54712
C          7.23362        1.48316       -3.81344
C          8.76658        1.51064       -3.82197
C          9.34069        2.19991       -5.06637
C         10.85861        2.23828       -5.07040
O         11.28491        2.96454       -6.24356
C         12.69184        3.01923       -6.38144
C         12.97464        3.54994       -7.76223
C         13.27889        4.88436       -7.99570
C         13.50399        5.38179       -9.28909
C         13.79975        6.82456       -9.57259
C         13.94024        7.75475       -8.36718
C         14.23958        9.18763       -8.83115
S         13.82903       10.45687       -7.61038
C         12.05761       10.63945       -7.86827
S         11.20824        9.73863       -8.99404
N         11.50320       11.58233       -7.07259
C         12.22124       12.37087       -6.06454
C         11.53664       12.20641       -4.70365
O         10.16158       12.56207       -4.76278
C          9.47065       11.76256       -5.72165
C         10.07204       11.90868       -7.11827
C         13.41672        4.45781      -10.34934
C         13.10764        3.13966      -10.09997
N         12.88747        2.69734       -8.82993
C         12.56883        1.28385       -8.64969
C         11.24671        0.88777       -8.46835
C         11.01347       -0.48399       -8.31953
N         11.98016       -1.41149       -8.34511
C         13.24047       -0.99842       -8.53187
C         13.59736        0.34531       -8.69283
H          0.43320       -0.74923        0.96765
H          0.46997       -1.01567       -0.78570
H          0.41126        0.63533       -0.14050
H          2.76631       -1.33011        0.23452
H          2.70726        0.30241        0.88989
H          2.58590        1.24266       -1.43802
H          2.62683       -0.38745       -2.10430
H          4.89695       -0.75776       -1.08994
H          4.85680        0.85857       -0.39037
H          4.72798        1.86404       -2.68933
H          4.74522        0.25397       -3.40405
H          7.02011       -0.17102       -2.43093
H          7.00053        1.41532       -1.66454
H          6.85263        2.51353       -3.92324
H          6.87278        0.93203       -4.69951
H          9.15257        0.47878       -3.75437
H          9.12572        2.03035       -2.91708
H          8.96316        3.23310       -5.12855
H          8.99335        1.68230       -5.97603
H         11.28739        1.21812       -5.10242
H         11.24762        2.74204       -4.16580
H         13.15021        2.01906       -6.25464
H         13.15326        3.69462       -5.63746
H         13.33106        5.54527       -7.13197
H         12.97711        7.20790      -10.20673
H         14.69655        6.86670      -10.21584
H         14.73525        7.41195       -7.68608
H         12.99342        7.76215       -7.80793
H         13.67059        9.43287       -9.73947
H         15.31072        9.33735       -9.03031
H         12.20628       13.43039       -6.36992
H         13.26708       12.05006       -5.99624
H         12.00154       12.87299       -3.96550
H         11.64949       11.15904       -4.35980
H          8.42855       12.10728       -5.71990
H          9.49374       10.69814       -5.41625
H          9.96533       12.94840       -7.46961
H          9.58832       11.23718       -7.83687
H         13.58048        4.77137      -11.38029
H         13.01489        2.38697      -10.88058
H         10.43702        1.61384       -8.42949
H          9.99425       -0.85072       -8.17425
H         14.00885       -1.77505       -8.55309
H         14.63613        0.64384       -8.83603
