84

F          0.37156        0.87247        0.81083
C          1.64338        0.29468        0.77186
C          2.56100        1.03205        1.73802
C          3.99426        0.49117        1.67866
C          4.89658        1.08412        2.76395
O          6.18570        0.48127        2.84537
C          6.96035        0.63167        1.67784
C          8.39402        0.22766        1.99426
C          9.35477        0.33652        0.80427
C         10.76150       -0.17561        1.13834
C         11.76203       -0.00811       -0.00924
C         13.16125       -0.53294        0.32995
C         14.18976       -0.30845       -0.78345
C         15.57775       -0.86331       -0.44756
C         16.62970       -0.58986       -1.52723
C         18.01012       -1.16115       -1.18913
C         19.07828       -0.86204       -2.24612
C         20.45416       -1.42756       -1.88564
C         21.52657       -1.10246       -2.93448
N         22.84115       -1.62347       -2.58989
C         23.76238       -0.99154       -1.78228
C         24.82967       -1.85031       -1.58878
C         24.54096       -3.04958       -2.29786
C         23.30689       -2.88286       -2.90057
N          6.87082        2.04819        1.24745
C          6.05520        2.95402        1.80958
N          6.25600        4.26797        1.55095
N          5.08095        2.55026        2.63322
C          4.37338        3.48556        3.55495
C          4.23515        2.95949        4.96308
C          2.94999        2.67259        5.44556
C          2.75924        2.21823        6.75050
C          3.86760        2.04751        7.58168
C          5.14904        2.33569        7.10735
C          5.36328        2.79460        5.80042
C          6.76692        3.08563        5.32891
H          2.00832        0.36221       -0.26654
H          1.53767       -0.76792        1.04358
H          2.15573        0.93590        2.75783
H          2.54042        2.10202        1.47794
H          4.41575        0.67225        0.67713
H          3.99766       -0.59881        1.83806
H          4.45159        0.92451        3.75409
H          6.56304        0.01199        0.85126
H          8.34977       -0.81427        2.34663
H          8.74600        0.83857        2.84034
H          9.44313        1.38893        0.47384
H          8.95401       -0.22639       -0.05637
H         10.69725       -1.23991        1.42151
H         11.13692        0.35349        2.03107
H         11.82958        1.06053       -0.28105
H         11.38355       -0.52634       -0.90747
H         13.09900       -1.61080        0.55992
H         13.51740       -0.04747        1.25548
H         14.26920        0.77300       -0.99263
H         13.82704       -0.77111       -1.71809
H         15.50312       -1.95149       -0.27657
H         15.92034       -0.43168        0.50946
H         16.71411        0.49986       -1.68530
H         16.28551       -1.00839       -2.48939
H         17.92976       -2.25346       -1.05119
H         18.34214       -0.75915       -0.21590
H         19.15449        0.23090       -2.38641
H         18.75371       -1.26920       -3.22006
H         20.39489       -2.52164       -1.76655
H         20.78129       -1.02863       -0.91162
H         21.61521       -0.01258       -3.06389
H         21.24280       -1.51657       -3.91416
H         23.58463        0.01715       -1.42284
H         25.72433       -1.63145       -1.01468
H         25.17052       -3.93029       -2.37449
H         22.72568       -3.54824       -3.53125
H          7.49354        2.34508        0.50283
H          7.05340        4.55653        0.99806
H          5.49396        4.92902        1.62985
H          3.37907        3.70817        3.14184
H          4.95195        4.42003        3.56690
H          2.08811        2.81984        4.79064
H          1.75473        2.00320        7.11448
H          3.73596        1.69683        8.60567
H          6.00771        2.21075        7.76955
H          7.45346        3.16185        6.18017
H          6.83347        4.03058        4.76823
H          7.14428        2.28577        4.67312
