34

N          3.03356        0.66599        1.62002
C          2.32887       -0.10714        0.58671
C          2.84746        0.25506       -0.81043
C          4.34522       -0.02430       -0.96168
C          4.89392        0.40707       -2.32338
C          6.36674        0.15786       -2.54689
C          7.15840       -0.30443       -1.47672
N          8.45252       -0.54140       -1.67910
N          9.11788       -0.42560       -2.81095
C          8.40015        0.00554       -3.87282
C          7.00650        0.36207       -3.77185
C          6.25899        0.86250       -4.98945
C          6.86501        2.06239       -5.69075
C          7.01910        3.30308       -5.21840
Br         6.50039        3.81583       -3.47633
Br         7.40743        1.77367       -7.50916
N          9.08890        0.04858       -5.02697
H          2.85865        0.26999        2.54344
H          2.67815        1.62318        1.65144
H          1.23110        0.02054        0.60274
H          2.52315       -1.17449        0.77758
H          2.65227        1.32464       -1.00264
H          2.27247       -0.30620       -1.56440
H          4.52342       -1.10381       -0.81153
H          4.86228        0.50196       -0.14357
H          4.70864        1.48568       -2.47642
H          4.33254       -0.10340       -3.12388
H          6.78223       -0.47705       -0.47150
H          9.03673       -0.86066       -0.90286
H          5.23050        1.12093       -4.70391
H          6.18067        0.03502       -5.71321
H          7.43271        4.12298       -5.80092
H         10.07037       -0.20692       -5.00937
H          8.70284        0.42172       -5.89082
