35

O          3.15346       -3.36020        0.68296
C          4.45894       -3.88186        0.44225
C          5.09614       -2.98709       -0.62344
P          4.87904       -1.20793       -0.27081
C          5.49050       -0.76524        1.38328
C          5.29027        0.73268        1.66986
O          3.94255        1.05703        1.41036
Si         3.21242        2.54027        1.85447
C          1.41443        2.28758        1.40846
C          3.45344        2.81483        3.69476
C          3.99699        3.92619        0.85843
C          5.66136       -0.24723       -1.56079
C          4.95752        0.58769       -2.33498
H          2.66464       -3.95987        1.26874
H          4.42499       -4.91496        0.05915
H          5.06975       -3.88115        1.36241
H          4.62454       -3.14885       -1.60489
H          6.17153       -3.19295       -0.72654
H          3.50574       -0.91014       -0.33326
H          6.55089       -1.05209        1.45425
H          4.91203       -1.37628        2.09290
H          5.97849        1.32775        1.04076
H          5.56745        0.91166        2.72394
H          0.97929        1.44414        1.96135
H          1.28194        2.09948        0.33403
H          0.83027        3.18484        1.65839
H          3.02281        1.99590        4.28730
H          2.94670        3.74259        3.99891
H          4.51083        2.92430        3.97435
H          3.87360        3.76763       -0.22240
H          5.07043        4.03856        1.06791
H          3.51985        4.88628        1.10455
H          6.73803       -0.38297       -1.69456
H          3.88248        0.73368       -2.20985
H          5.44113        1.15966       -3.12839
