77

C          7.79329        8.66027       -6.37906
O          7.41538        9.01665       -5.05515
C          7.55361        7.94456       -4.14379
C          7.00725        8.41297       -2.80168
O          7.22918        7.35899       -1.86418
C          6.60655        7.57005       -0.61326
C          6.80886        6.33087        0.23078
O          8.20955        6.20350        0.53507
C          8.62700        4.91804        1.01392
C         10.15476        4.88817        1.05490
C         10.88101        6.00529        1.84486
C         12.41908        5.82079        1.75905
C         13.13308        5.02760        2.86962
C         12.78492        3.53742        3.02672
C         13.21071        2.69430        1.81374
S         12.20807        1.19131        1.74374
O         12.50971        0.34257        2.86954
O         10.84207        1.57318        1.43888
Cl        12.98232        0.29647        0.03747
C         10.33736        6.14432        3.27652
O         10.76219        7.34875        3.89389
C         10.12751        8.46055        3.27353
C         10.60873        8.67954        1.83526
N         10.52337        7.32890        1.11899
C         11.94499        9.50465        1.65954
C         12.46396        9.30004        0.20335
C         13.78546        9.91950       -0.34224
C         13.90708       11.44787       -0.25463
C         15.06081        9.22870        0.16828
C         11.48948       10.97450        1.87476
O         10.51809       11.33073        0.89060
C         13.00519        9.24254        2.74689
H          7.64042        9.54713       -7.00447
H          7.17279        7.83188       -6.76626
H          8.85608        8.35977       -6.42997
H          8.61599        7.64481       -4.03379
H          6.99113        7.05345       -4.48498
H          5.92816        8.63574       -2.88969
H          7.52155        9.33962       -2.48322
H          5.51840        7.74323       -0.72751
H          7.02675        8.46130       -0.09995
H          6.48471        5.44029       -0.33270
H          6.22290        6.39852        1.16412
H          8.27491        4.13014        0.32733
H          8.17979        4.71618        2.00383
H         10.53714        4.89806        0.02042
H         10.44662        3.91146        1.46502
H         12.88793        6.80972        1.75077
H         12.64480        5.38528        0.77107
H         12.96600        5.52896        3.83455
H         14.21385        5.12164        2.67908
H         11.70669        3.41126        3.20638
H         13.28195        3.14500        3.92365
H         14.25934        2.37528        1.86231
H         13.03091        3.19062        0.85079
H         10.69684        5.31516        3.89682
H          9.23296        6.10266        3.27231
H         10.34753        9.34110        3.88844
H          9.03026        8.31425        3.28322
H          9.84702        9.27497        1.30852
H         11.08940        7.39034        0.26176
H          9.52698        7.18744        0.80500
H         11.65247        9.61879       -0.47139
H         12.61563        8.21854        0.03298
H         13.72397        9.68129       -1.41869
H         14.15050       11.78902        0.76213
H         12.98839       11.95312       -0.58231
H         14.72421       11.79230       -0.90300
H         15.30976        9.50556        1.20111
H         15.91901        9.51490       -0.45487
H         14.97613        8.13222        0.12342
H         12.37151       11.62656        1.81690
H         11.07318       11.08325        2.89378
H         10.27625       12.26107        1.01210
H         13.51420        8.27928        2.63922
H         12.57477        9.26839        3.75534
H         13.77828       10.01926        2.70433
