60

O          1.10897        1.06426        0.33105
C          2.43160        0.58642        0.50451
C          3.19315        1.79025        1.06473
N          4.69120        1.65930        0.95345
C          5.47447        2.88147        1.49759
C          4.90202        4.18854        0.93000
C          5.67220        5.44752        1.36480
C          4.98445        6.72717        0.87611
C          5.77090        7.99839        1.24119
N          5.14232        9.20963        0.74905
C          5.28326        9.71904       -0.52681
C          4.43574       10.80329       -0.65383
C          3.74974       10.95356        0.58435
C          4.19966        9.95565        1.42827
C          6.95769        2.68562        1.15939
C          7.53993        1.34447        1.61189
C          6.69344        0.18690        1.08438
C          5.22380        0.30535        1.49535
C          4.92404        0.12133        2.98590
C          5.09054       -1.36044        3.43576
C          6.39440       -1.55645        4.23789
C          6.74388       -3.01420        4.54536
C          3.84767       -1.82140        4.21062
H          0.51658        0.31687        0.15425
H          2.87982        0.26769       -0.46001
H          2.46523       -0.27331        1.19525
H          2.93812        1.97507        2.11471
H          2.89208        2.66635        0.48086
H          4.90120        1.63589       -0.05645
H          5.31945        2.84626        2.58673
H          3.85800        4.31387        1.24958
H          4.89564        4.13707       -0.17409
H          6.70059        5.42093        0.97267
H          5.75758        5.46511        2.46528
H          3.97029        6.80253        1.29972
H          4.86346        6.69283       -0.21871
H          6.79070        7.94511        0.82878
H          5.87300        8.08382        2.33369
H          5.98602        9.27779       -1.22725
H          4.33674       11.43045       -1.53393
H          3.02324       11.71858        0.83776
H          3.94636        9.72443        2.45821
H          7.51379        3.51139        1.62094
H          7.08757        2.80545        0.06807
H          7.59895        1.30919        2.71043
H          8.57144        1.24989        1.24747
H          7.07137       -0.78222        1.43642
H          6.75541        0.14884       -0.01747
H          4.64498       -0.44169        0.93381
H          3.89117        0.43505        3.19189
H          5.56594        0.76792        3.60169
H          5.16317       -1.98844        2.52755
H          6.31482       -0.98501        5.17884
H          7.23101       -1.10054        3.68283
H          6.00851       -3.48467        5.21091
H          7.72026       -3.08352        5.04183
H          6.79653       -3.61731        3.62671
H          3.72258       -1.24076        5.13730
H          3.91099       -2.88096        4.48719
H          2.93473       -1.69672        3.60994
