44

C          1.08477        0.84533       -2.60421
C          0.42203        0.42248       -1.31990
C          0.49132        1.22988       -0.17180
C         -0.08887        0.82864        1.03380
C         -0.75528       -0.39377        1.11987
C         -0.84318       -1.21322       -0.01637
C         -0.26162       -0.79715       -1.22498
C         -1.55136       -2.53069        0.05442
S         -3.39976       -2.26030        0.01953
C         -3.72978       -1.70841       -1.65037
C         -3.43936       -2.47773       -2.78004
C         -3.74968       -1.92124       -4.02492
N         -4.29455       -0.70567       -4.18014
C         -4.55885        0.01135       -3.08236
C         -4.29913       -0.44122       -1.78103
C         -4.11477       -3.95659        0.05176
C         -4.00558       -4.60869        1.43449
C         -4.67054       -3.84593        2.59211
C         -6.20198       -3.80190        2.49490
S         -6.82086       -2.51790        3.61529
O         -6.54101       -2.89627        4.97851
O         -6.41663       -1.23277        3.08729
Cl        -8.85872       -2.71058        3.30150
H          0.89621        1.90548       -2.82000
H          0.73456        0.25152       -3.45776
H          2.17614        0.72041       -2.53705
H          1.01432        2.18688       -0.22387
H         -0.01405        1.46844        1.91332
H         -1.19517       -0.71057        2.06788
H         -0.32365       -1.44216       -2.10535
H         -1.39840       -3.04698        1.01277
H         -1.31099       -3.20663       -0.77616
H         -2.99187       -3.47020       -2.72205
H         -3.54772       -2.48408       -4.93987
H         -5.00183        0.99847       -3.23819
H         -4.53400        0.17630       -0.91371
H         -3.61034       -4.55188       -0.72043
H         -5.15687       -3.79660       -0.26108
H         -2.94780       -4.78291        1.68152
H         -4.45047       -5.61170        1.33151
H         -4.27752       -2.81764        2.63721
H         -4.38701       -4.32440        3.53866
H         -6.67451       -4.74546        2.79715
H         -6.57775       -3.50725        1.50579
