89

C          0.91990       12.59588       -8.63247
C          2.44495       12.52699       -8.51397
C          2.92591       11.52951       -7.45405
C          4.45055       11.45341       -7.32320
C          4.92675       10.42924       -6.28756
C          6.45122       10.34690       -6.16429
C          6.94005        9.28059       -5.17792
C          8.46698        9.20143       -5.10137
C          9.00457        8.07875       -4.20880
C         10.53490        8.07006       -4.12966
C         11.12045        6.82777       -3.44758
C         12.65361        6.87125       -3.31524
C         13.10129        7.67911       -2.08855
N         14.53197        8.07794       -2.10711
C         15.51784        7.14641       -2.16870
N         16.66286        7.44822       -2.78890
C         17.86243        6.60356       -2.84497
C         17.86840        5.64104       -4.04136
C         17.90990        6.36048       -5.39762
C         17.87743        5.42290       -6.61360
C         16.52591        4.73921       -6.86056
C         16.52408        3.86072       -8.11403
N         15.34107        5.94933       -1.58151
C         14.86820        9.44547       -2.45898
O         15.08993        9.52349       -3.85968
C         15.18203       10.87931       -4.37073
C         14.71617       10.89091       -5.81686
C         13.23274       10.53829       -5.97616
C         12.70766       10.67576       -7.40865
C         11.21928       10.33004       -7.52903
C         10.65166       10.50851       -8.93815
H          0.60645       13.31558       -9.40113
H          0.45890       12.90361       -7.68199
H          0.49570       11.61698       -8.90172
H          2.84234       13.52866       -8.27718
H          2.87905       12.25435       -9.49101
H          2.53091       10.52644       -7.69445
H          2.48819       11.79747       -6.47611
H          4.84564       12.45098       -7.06128
H          4.88868       11.20536       -8.30637
H          4.52970        9.43366       -6.55314
H          4.49179       10.67361       -5.30255
H          6.84841       11.33293       -5.86414
H          6.88469       10.13984       -7.15939
H          6.53756        8.29692       -5.47696
H          6.52660        9.48428       -4.17481
H          8.86584       10.17118       -4.75331
H          8.86627        9.06361       -6.12038
H          8.65452        7.10706       -4.59857
H          8.58088        8.16688       -3.19335
H         10.87423        8.99022       -3.62023
H         10.94940        8.12996       -5.15017
H         10.84111        5.93732       -4.03135
H         10.66084        6.68309       -2.45359
H         13.09092        7.32851       -4.21672
H         13.05696        5.84924       -3.25300
H         12.87605        7.14020       -1.15357
H         12.54081        8.62003       -2.02592
H         16.57754        8.21845       -3.45946
H         17.95625        6.07029       -1.88765
H         18.72268        7.28600       -2.90178
H         16.98873        4.97726       -3.98817
H         18.75105        4.98923       -3.94007
H         18.82516        6.97464       -5.43639
H         17.06132        7.06388       -5.47675
H         18.66722        4.65879       -6.51027
H         18.14454        6.00753       -7.50849
H         15.74486        5.51459       -6.95095
H         16.24379        4.12353       -5.98937
H         16.76855        4.44732       -9.01166
H         15.54260        3.39616       -8.27818
H         17.26539        3.05214       -8.03648
H         14.55728        5.78991       -0.96332
H         15.95039        5.16955       -1.78795
H         15.76831        9.74876       -1.89179
H         14.02707       10.09042       -2.15931
H         16.22138       11.23498       -4.26864
H         14.53613       11.53251       -3.75632
H         15.34384       10.20294       -6.40752
H         14.91117       11.90023       -6.21536
H         12.63604       11.18988       -5.31232
H         13.06288        9.50924       -5.62054
H         13.29307       10.02675       -8.08337
H         12.87434       11.70802       -7.76279
H         10.64675       10.95192       -6.82040
H         11.06552        9.28789       -7.20124
H         10.75761       11.54738       -9.28362
H          9.58222       10.25780       -8.97054
H         11.16703        9.86363       -9.66503
