54

C         -0.01033       -0.98806       -0.67541
C          1.45027       -0.63593       -0.38476
C          2.27549       -0.37975       -1.65064
C          3.72117        0.03718       -1.35525
C          4.51560        0.26735       -2.65539
C          6.06050        0.37841       -2.69514
C          6.84897       -0.96730       -2.55021
C          6.38677       -1.92836       -1.43803
C          7.19728       -3.23172       -1.35407
C          6.52336       -4.23028       -0.42268
Br         7.57313       -5.87611       -0.26190
C          8.28445       -0.47644       -2.36252
N          8.10138        0.66315       -1.39394
C          6.82792        1.43595       -1.81315
C          6.22541        2.08079       -0.55552
C          5.64530        3.51165       -0.69792
C          4.53513        3.71797       -1.75437
C          5.00062        3.88303       -3.20535
C          5.15004        3.95627        0.68659
H         -0.56584       -1.18254        0.25120
H         -0.08994       -1.88606       -1.30535
H         -0.52062       -0.16817       -1.20195
H          1.91962       -1.45042        0.19341
H          1.49191        0.25648        0.26295
H          1.78716        0.40290       -2.25696
H          2.27625       -1.28827       -2.27841
H          4.18853       -0.72519       -0.71573
H          3.69063        0.95628       -0.75289
H          4.10673        1.16065       -3.14882
H          4.27820       -0.55825       -3.34809
H          6.26769        0.69669       -3.72981
H          6.78722       -1.50970       -3.50504
H          5.33690       -2.18421       -1.63763
H          6.37805       -1.43105       -0.45037
H          8.22161       -3.04837       -0.99308
H          7.29485       -3.67754       -2.35664
H          5.53928       -4.53891       -0.79356
H          6.41848       -3.84508        0.59849
H          8.70677       -0.05556       -3.28376
H          8.98849       -1.20318       -1.94160
H          8.91607        1.28557       -1.34362
H          7.95471        0.28965       -0.44610
H          7.20975        2.23070       -2.46791
H          7.03450        2.17632        0.19139
H          5.48560        1.40863       -0.10234
H          6.48961        4.16804       -0.98160
H          3.99823        4.63640       -1.47352
H          3.78543        2.91568       -1.67535
H          5.72053        4.70920       -3.29646
H          4.15037        4.11932       -3.85868
H          5.47425        2.98520       -3.62643
H          4.27641        3.36545        1.00197
H          4.84698        5.01087        0.67048
H          5.92502        3.84408        1.45846
