66

C          1.46278       -0.62338       -0.60591
C          2.36962        0.56234       -0.25022
C          3.35326        0.92516       -1.38036
N          2.70884        1.39882       -2.62202
C          2.47968        2.67827       -2.94052
N          1.86230        2.72763       -4.13576
C          1.68017        1.42248       -4.60510
C          2.21501        0.60621       -3.64009
C          1.08940        1.01935       -5.91941
C          1.89242        1.45988       -7.16675
C          3.41121        1.21279       -7.09567
C          3.75208       -0.28220       -6.94302
C          5.21023       -0.56701       -6.53111
C          5.41877       -1.99851       -6.12563
C          6.10295       -2.95669       -6.77767
C          6.82608       -2.75172       -8.08259
C          6.19587       -4.35088       -6.21463
C          4.09944        1.84331       -8.31400
C          1.55794        4.00535       -4.81813
C          0.07176        4.23657       -5.11210
C         -0.89734        4.25910       -3.91841
C         -0.90769        5.54736       -3.06978
S          0.10437        5.43551       -1.58478
O         -0.42650        4.40084       -0.72171
O          1.50510        5.42640       -1.95902
O         -0.15306        6.87511       -0.90402
C          1.56575        1.77630        0.22713
H          2.03889       -1.49303       -0.95423
H          0.73067       -0.35884       -1.38355
H          0.89120       -0.94033        0.27567
H          3.03490        0.24406        0.57108
H          3.96632        0.05761       -1.66050
H          4.03313        1.72379       -1.05543
H          2.71465        3.54422       -2.33066
H          2.29812       -0.47337       -3.61548
H          0.05390        1.38267       -5.99956
H          1.01208       -0.07595       -5.89392
H          1.71377        2.52908       -7.36514
H          1.46864        0.92879       -8.03414
H          3.79476        1.72882       -6.19315
H          3.52936       -0.80968       -7.88616
H          3.09547       -0.74453       -6.18800
H          5.46409        0.09022       -5.67833
H          5.89489       -0.28454       -7.34273
H          4.92972       -2.28961       -5.18709
H          6.72398       -1.73788       -8.48652
H          6.45287       -3.45639       -8.84257
H          7.90067       -2.96410       -7.96661
H          5.64533       -4.44952       -5.27034
H          7.24515       -4.63283       -6.03148
H          5.79669       -5.09229       -6.92529
H          3.76433        1.36393       -9.24639
H          5.19092        1.74187       -8.26217
H          3.87338        2.91666       -8.39214
H          2.13086        4.02106       -5.75479
H          1.95668        4.79235       -4.16806
H         -0.28150        3.48085       -5.82688
H          0.01339        5.19397       -5.65362
H         -0.75095        3.38093       -3.26960
H         -1.91309        4.14710       -4.32204
H         -1.91731        5.76446       -2.69649
H         -0.54884        6.42817       -3.62083
H         -0.79620        6.76344       -0.17627
H          0.84958        2.12527       -0.53006
H          2.21471        2.62386        0.49048
H          0.98115        1.52064        1.12026
