35

C          4.56933       -2.57542       -6.21810
C          4.28356       -2.61025       -4.71475
C          4.40882       -1.22903       -4.05768
C          4.05745       -1.17510       -2.56293
C          4.89036       -2.08963       -1.64286
C          6.42191       -2.05161       -1.84488
C          7.06616       -3.21208       -1.04691
I          8.55352       -4.38853       -2.11657
N          7.73550       -2.53768        0.06960
C          7.82267       -1.25435       -0.06847
C          7.19574       -0.79273       -1.32597
C          6.48108        0.56358       -1.15200
O          7.42195        1.40847       -0.52443
C          6.96864        2.76220       -0.39976
H          4.46618       -3.57100       -6.66885
H          5.59069       -2.22200       -6.42429
H          3.87516       -1.90093       -6.73930
H          4.96903       -3.33193       -4.23637
H          3.26840       -3.00226       -4.53638
H          3.74356       -0.52550       -4.58250
H          5.42750       -0.83364       -4.22698
H          3.00436       -1.46763       -2.42772
H          4.11430       -0.13243       -2.21850
H          4.58925       -3.13334       -1.82735
H          4.63755       -1.88759       -0.58862
H          6.63441       -2.18336       -2.91117
H          6.35549       -3.95295       -0.66557
H          8.16395       -3.06101        0.83728
H          8.33485       -0.62658        0.66267
H          8.05625       -0.58345       -1.99658
H          5.56886        0.45409       -0.53640
H          6.18312        0.94822       -2.14362
H          7.77979        3.31770        0.08205
H          6.06173        2.82202        0.22455
H          6.76159        3.20084       -1.38958
