46

C          3.58113       -3.54591        2.38165
C          3.72391       -2.16301        1.74241
C          4.52602       -1.19131        2.61771
C          4.65837        0.18261        1.98545
O          5.39538        1.03902        2.88497
C          5.57379        2.34849        2.38480
C          6.33523        3.09810        3.43641
N          6.65048        4.36415        3.45009
N          7.35446        4.54504        4.62866
C          7.45004        3.38680        5.32660
N          8.07172        3.19441        6.49235
C          8.12991        1.88853        7.16534
C          9.12702        1.92315        8.32276
C          9.18927        0.58491        9.06108
N          6.80571        2.45945        4.56707
C          8.00357        5.82895        4.90152
C          7.37255        6.64094        6.03351
O          7.64192        5.89971        7.24678
C          7.96062        8.04492        6.09228
H          3.00906       -4.22422        1.73529
H          3.05886       -3.48658        3.34766
H          4.56414       -4.00584        2.56058
H          2.72398       -1.74093        1.54945
H          4.21198       -2.25906        0.75868
H          5.53254       -1.60150        2.80282
H          4.03550       -1.08640        3.59942
H          3.66408        0.62912        1.79979
H          5.19352        0.12772        1.01950
H          4.61037        2.85846        2.19229
H          6.14594        2.35337        1.43622
H          8.17627        4.04477        7.05935
H          8.44416        1.13142        6.42856
H          7.12874        1.60497        7.53717
H          8.83446        2.72236        9.02354
H         10.12056        2.18986        7.93154
H          8.21214        0.31092        9.48372
H          9.90690        0.63500        9.88897
H          9.51034       -0.22810        8.39418
H          6.62805        1.47949        4.77530
H          7.94666        6.38530        3.95946
H          9.06369        5.63849        5.13437
H          6.28076        6.69050        5.87132
H          7.30759        6.40559        8.00478
H          9.05331        8.01280        6.20517
H          7.54286        8.59758        6.94514
H          7.71487        8.61041        5.18299
