55

C          9.45768        5.17802        7.09547
C          8.44209        6.32166        6.99760
C          7.36838        6.10659        5.91070
C          6.58604        4.83828        6.15461
O          5.93425        4.57641        7.14226
O          6.74153        3.95212        5.10949
C          6.08434        2.67823        5.26246
C          6.87915        1.75599        6.19813
N          8.30687        1.71518        5.89003
C          8.93249        0.84811        5.07603
N          8.23832       -0.01984        4.33251
N         10.29252        0.83892        5.04043
C         11.06573        0.34935        3.86934
C         11.08924       -1.18633        3.75219
O         10.08677       -1.89363        3.74705
O         12.33275       -1.62952        3.61239
C         12.51988       -3.08362        3.42952
C         12.67672       -3.77426        4.76962
C         10.65294        0.98375        2.53202
C         11.06072        1.39458        6.17998
C         10.96017        0.58684        7.48693
C         11.39566       -0.87032        7.28827
C         11.78772        1.29773        8.56608
H         10.26155        5.41946        7.80324
H          9.92427        4.96946        6.11942
H          8.97717        4.25691        7.46766
H          8.96482        7.26225        6.77307
H          7.94611        6.45935        7.96903
H          7.81882        6.07460        4.90984
H          6.65182        6.94114        5.93404
H          6.02310        2.27916        4.24120
H          5.07097        2.81349        5.66603
H          6.46663        0.73661        6.17211
H          6.78089        2.11582        7.23017
H          8.85569        2.50061        6.22542
H          7.23987        0.08394        4.21140
H          8.73117       -0.86694        3.98777
H         12.09751        0.65204        4.07682
H         13.43005       -3.14413        2.82225
H         11.66508       -3.46745        2.85939
H         13.50630       -3.34329        5.34466
H         12.89868       -4.83674        4.59909
H         11.75638       -3.71454        5.36403
H          9.65203        0.67844        2.20757
H         11.36790        0.68182        1.75589
H         10.68236        2.07732        2.61625
H         10.78689        2.44938        6.35179
H         12.10917        1.42334        5.85514
H          9.90630        0.58740        7.81435
H         12.42813       -0.93283        6.91020
H         10.74092       -1.40363        6.58547
H         11.35956       -1.41583        8.24023
H         12.85669        1.31489        8.30400
H         11.69316        0.78023        9.52928
H         11.46065        2.33739        8.71396
