54

C         10.83063       -4.23972       -0.81096
C          9.72370       -3.19121       -0.68013
C         10.23847       -1.75218       -0.79192
C          9.13365       -0.69697       -0.67633
C          9.66235        0.73640       -0.80363
C          8.55953        1.77552       -0.71933
O          9.14685        3.08094       -0.89017
C          8.20595        4.12947       -0.84800
C          8.99411        5.39089       -1.17600
C         10.17253        5.61468       -0.22559
N         10.32516        7.11368       -0.28223
C          8.90164        7.68758       -0.61523
O          8.16090        6.54363       -0.97684
C          9.02563        8.72256       -1.73047
C          9.46331        8.17998       -3.09908
C          9.93152        9.29418       -4.02217
F         11.07762        9.88938       -3.46003
C          8.34045        8.27699        0.69228
O          7.08665        8.81533        0.39901
C          6.32179        9.17131        1.57198
C          5.00191        9.75305        1.11365
H         10.42935       -5.25896       -0.73246
H         11.58944       -4.12057       -0.02326
H         11.34529       -4.15919       -1.77997
H          9.20576       -3.31765        0.28567
H          8.95941       -3.36270       -1.45696
H         10.76236       -1.62613       -1.75583
H         10.99790       -1.57372       -0.01026
H          8.61234       -0.81660        0.28912
H          8.37453       -0.87938       -1.45659
H         10.18707        0.85782       -1.76509
H         10.40261        0.93547       -0.01148
H          8.04175        1.73266        0.25782
H          7.80180        1.61599       -1.50960
H          7.74034        4.23645        0.15336
H          7.39296        3.99311       -1.58536
H          9.34853        5.34295       -2.22094
H         11.10199        5.12416       -0.52952
H          9.92073        5.33664        0.80498
H         10.97416        7.39437       -1.03001
H         10.67802        7.51021        0.59735
H          9.71847        9.51159       -1.39261
H          8.03858        9.19911       -1.80992
H          8.63575        7.63469       -3.57624
H         10.30112        7.46223       -3.02332
H          9.17354       10.08439       -4.13808
H         10.21016        8.90876       -5.01296
H          9.04050        9.05146        1.08216
H          8.27079        7.46240        1.44384
H          6.89603        9.90046        2.17241
H          6.17224        8.26454        2.18663
H          5.15769       10.66067        0.51682
H          4.39089       10.01938        1.98614
H          4.44113        9.02710        0.51126
