89

C          1.16959        1.62861        0.30606
C          2.60632        1.25913       -0.07118
C          3.13967        0.04224        0.69295
C          4.56117       -0.36369        0.29197
C          5.10002       -1.56462        1.07610
C          6.47095       -2.04793        0.59306
C          7.02584       -3.22826        1.39787
C          8.30498       -3.82152        0.79897
C          8.90246       -4.96685        1.62402
C         10.04027       -5.69087        0.89871
C         10.69665       -6.80553        1.72432
C         11.60906       -7.67975        0.85243
C         12.50156       -8.72018        1.54821
C         13.80233       -8.89403        0.74482
O         14.65604       -9.91390        1.22466
C         13.99620      -11.17029        1.19055
C         12.81087      -11.20040        2.15473
N         11.83543      -10.09822        1.65971
C         10.52798      -10.09053        2.41783
O         10.08847      -11.40391        2.42335
C          8.85617      -11.59945        3.16573
C          8.52234      -13.07979        3.14544
C          7.22500      -13.39703        3.90266
C          6.88922      -14.89064        3.89059
C         13.18783      -11.04457        3.62920
C         13.93800      -12.28405        4.14447
C         14.22546      -12.23314        5.64878
C         14.99925      -13.46057        6.14176
C         15.30522      -13.43587        7.64214
C         16.08581      -14.66500        8.12192
C         16.37813      -14.64874        9.62414
H          0.81894        2.50787       -0.25145
H          1.08524        1.86027        1.37826
H          0.47564        0.80202        0.09224
H          3.26988        2.12122        0.11230
H          2.66371        1.06029       -1.15494
H          2.45992       -0.81364        0.53245
H          3.10840        0.25059        1.77719
H          5.24131        0.49582        0.42664
H          4.58024       -0.59595       -0.78769
H          4.37948       -2.39888        1.00320
H          5.15545       -1.30664        2.14821
H          7.19180       -1.21243        0.62711
H          6.39617       -2.33603       -0.47076
H          6.25824       -4.02023        1.46013
H          7.21428       -2.90801        2.43760
H          9.06175       -3.02721        0.67762
H          8.08536       -4.18575       -0.22013
H          8.10859       -5.69710        1.86353
H          9.26085       -4.57825        2.59304
H         10.81269       -4.96477        0.59246
H          9.64321       -6.12020       -0.03830
H          9.90593       -7.40530        2.20370
H         11.28492       -6.36651        2.54721
H         12.29390       -7.00726        0.30896
H         11.02082       -8.17171        0.05609
H         12.73384       -8.42595        2.58123
H         14.36537       -7.95362        0.80075
H         13.54886       -9.07569       -0.32141
H         14.73017      -11.93040        1.48091
H         13.66197      -11.40330        0.15806
H         12.24665      -12.13213        2.01524
H         11.58734      -10.38020        0.69761
H          9.84339       -9.41503        1.87830
H         10.72480       -9.68226        3.42570
H          8.05545      -10.99809        2.69761
H          9.00303      -11.23443        4.19906
H          9.36185      -13.63884        3.58946
H          8.43615      -13.41166        2.09831
H          6.39231      -12.82826        3.45680
H          7.31199      -13.04631        4.94435
H          6.76596      -15.26407        2.86364
H          5.95439      -15.08960        4.43042
H          7.68196      -15.48408        4.36856
H         12.27813      -10.91743        4.23539
H         13.80980      -10.14970        3.77804
H         14.89368      -12.39469        3.60741
H         13.34764      -13.18810        3.91530
H         13.27469      -12.14819        6.20343
H         14.79900      -11.31944        5.88263
H         15.94544      -13.54248        5.57889
H         14.42580      -14.37303        5.90213
H         14.36053      -13.35909        8.20867
H         15.87752      -12.52321        7.88483
H         17.03354      -14.73250        7.56086
H         15.51887      -15.57626        7.86601
H         16.97815      -13.77057        9.90566
H         16.93543      -15.54323        9.93378
H         15.44893      -14.61634       10.21192
