71

C          1.01992       -1.30732      -12.93490
C          2.53744       -1.49540      -12.88426
C          3.12738       -1.25638      -11.49087
C          4.64567       -1.44541      -11.42372
C          5.22935       -1.20203      -10.02858
C          6.74677       -1.39812       -9.95414
C          7.32288       -1.14680       -8.55729
C          8.83787       -1.36262       -8.46847
C          9.39011       -1.10884       -7.06023
C         10.87766       -1.45324       -6.86436
C         11.79386       -0.54704       -7.67644
N         13.26666       -0.89023       -7.48598
C         13.72249       -0.78671       -6.07513
C         14.08630       -1.95580       -5.40907
C         14.49918       -1.87234       -4.07581
C         14.54099       -0.63438       -3.43045
C         14.17128        0.52789       -4.11491
C         13.75761        0.45872       -5.44723
C         14.17333       -0.16362       -8.46304
C         15.44256       -0.99227       -8.68293
O         14.94178       -2.32111       -8.88667
C         15.94745       -3.37341       -8.91677
C         15.26433       -4.69228       -8.68637
C         14.52294       -5.29805       -9.71285
C         13.86955       -6.51161       -9.49040
C         13.95887       -7.13766       -8.24241
C         14.70204       -6.54704       -7.21690
C         15.34895       -5.32812       -7.43861
C         16.25128       -0.44422       -9.85377
H          0.62586       -1.47764      -13.94613
H          0.73511       -0.28796      -12.63387
H          0.50903       -2.00658      -12.25624
H          3.01899       -0.81152      -13.60359
H          2.79490       -2.51523      -13.21690
H          2.64276       -1.93831      -10.76994
H          2.87151       -0.23468      -11.15894
H          5.13033       -0.76470      -12.14577
H          4.90057       -2.46814      -11.75300
H          4.74017       -1.87832       -9.30603
H          4.97786       -0.17771       -9.70226
H          7.23769       -0.72569      -10.67962
H          6.99757       -2.42501      -10.27312
H          6.82240       -1.81028       -7.83102
H          7.08220       -0.11655       -8.24274
H          9.33222       -0.70502       -9.20501
H          9.07571       -2.39777       -8.77141
H          8.81714       -1.71202       -6.33935
H          9.21728       -0.05738       -6.77395
H         11.05119       -2.50380       -7.15544
H         11.13074       -1.36786       -5.79736
H         11.67525        0.50924       -7.39733
H         11.60634       -0.64425       -8.75377
H         13.41083       -1.88362       -7.77087
H         14.04828       -2.92101       -5.91891
H         14.78510       -2.77896       -3.54260
H         14.86105       -0.57346       -2.39037
H         14.20152        1.49438       -3.61199
H         13.46354        1.36830       -5.97330
H         14.39140        0.83709       -8.07594
H         13.61529       -0.08081       -9.40508
H         16.06173       -0.98004       -7.76433
H         16.69476       -3.17787       -8.12817
H         16.45414       -3.35202       -9.89488
H         14.46548       -4.82088      -10.69347
H         13.30062       -6.97778      -10.29559
H         13.45821       -8.09168       -8.07363
H         14.78937       -7.04288       -6.24930
H         15.94954       -4.87875       -6.64358
H         15.67046       -0.48764      -10.78543
H         17.17621       -1.01707       -9.99197
H         16.53978        0.59953       -9.66615
