36

C          9.26209        0.21979       -1.86280
O          8.69536       -1.08084       -1.48755
C          7.38665       -1.13944       -1.36196
O          6.57687       -0.24083       -1.54270
C          6.90835       -2.52677       -0.91606
N          5.40723       -2.47405       -1.00884
C          4.86996       -3.07847       -2.29923
C          3.39438       -2.75894       -2.51697
C          2.91998       -3.13404       -3.93244
C          2.92217       -4.64780       -4.22311
N          2.47468       -4.95042       -5.56532
C          1.16203       -5.15551       -5.94695
C          1.13052       -5.27404       -7.32261
C          2.46526       -5.12478       -7.79525
C          3.27322       -4.92133       -6.69390
N          4.80882       -2.92162        0.22823
H         10.33549        0.03903       -1.94861
H          9.04433        0.95260       -1.07772
H          8.83523        0.54504       -2.81786
H          7.17827       -2.69916        0.13344
H          7.31127       -3.33279       -1.53975
H          5.25236       -1.43215       -1.07298
H          5.07929       -4.15622       -2.24315
H          5.48301       -2.64477       -3.10352
H          3.23668       -1.67697       -2.37184
H          2.77313       -3.28196       -1.77153
H          3.53907       -2.61939       -4.68414
H          1.89721       -2.75445       -4.06616
H          2.26678       -5.17176       -3.50954
H          3.93089       -5.07583       -4.10406
H          0.36995       -5.21679       -5.20675
H          0.24632       -5.46561       -7.92154
H          2.80091       -5.18038       -8.82572
H          4.34638       -4.77559       -6.61385
H          4.82146       -3.94715        0.22921
H          3.82762       -2.62705        0.22005
