42

N          5.64823       -4.45382       -0.09039
C          4.90578       -3.30324        0.47796
C          5.23489       -1.99946       -0.26104
C          4.57154       -1.89374       -1.64008
C          5.11247       -0.77037       -2.53671
N          6.57497       -0.80745       -2.73289
C          7.28185       -1.87820       -3.12275
N          6.71190       -2.85881       -3.82411
C          7.13220       -4.24971       -3.87834
C          5.88811       -5.12260       -4.20444
N          5.23882       -4.50360       -5.38593
N          6.40731       -6.48566       -4.35586
N          4.93687       -5.00010       -3.12322
N          8.59381       -1.98525       -2.78792
C          9.28683       -1.22651       -1.74896
C          9.88555        0.09505       -2.20878
F          8.84693        1.00295       -2.51263
H          5.31054       -5.31696        0.34147
H          6.63081       -4.38816        0.18717
H          5.10635       -3.16588        1.55524
H          3.83109       -3.52177        0.38376
H          6.33352       -1.93128       -0.35468
H          4.93712       -1.14658        0.36953
H          3.49501       -1.69786       -1.51411
H          4.63957       -2.85696       -2.16482
H          4.91338        0.21495       -2.09359
H          4.59761       -0.78090       -3.51105
H          7.11134        0.03070       -2.51736
H          5.83676       -2.70260       -4.33601
H          7.55323       -4.56301       -2.91377
H          7.88865       -4.41843       -4.66429
H          5.63738       -4.84758       -6.26072
H          4.23961       -4.70861       -5.39493
H          6.95248       -6.60375       -5.21269
H          5.64352       -7.16210       -4.38484
H          4.18647       -5.68714       -3.20077
H          5.35549       -5.06291       -2.18589
H          9.14511       -2.63617       -3.33600
H         10.09952       -1.85742       -1.36021
H          8.59045       -1.04678       -0.91623
H         10.49294       -0.01732       -3.11862
H         10.49092        0.54269       -1.40748
