126

S          1.32171        0.73558        1.06855
C          2.94186        0.41496        1.10355
N          3.51510       -0.79246        1.45486
C          4.74917       -0.89468        2.17152
C          5.65272       -1.91872        1.85015
C          6.85243       -2.02976        2.55150
C          7.16108       -1.12541        3.57428
C          6.24956       -0.11838        3.90481
C          5.03951       -0.00560        3.21673
C          2.70902       -1.98836        1.36616
C          2.38107       -2.69653        2.52499
C          1.61417       -3.85868        2.42456
C          1.17817       -4.30924        1.17623
C          1.51593       -3.59733        0.02088
C          2.28494       -2.43814        0.11185
S          3.93502        1.79295        0.61426
C          5.64995        1.26476        0.19360
C          6.17384        2.29152       -0.81759
C          7.70411        2.25280       -0.94199
C          8.28397        3.26003       -1.95545
C          7.92376        4.73506       -1.59108
N          9.20199        5.44653       -1.73397
C         10.22938        4.57018       -1.75698
N         11.51346        4.92795       -1.72868
C         12.65518        4.00887       -1.75400
C         13.87356        4.70591       -1.14646
O         14.94598        3.80547       -1.23615
C         16.12816        4.29770       -0.59147
C         17.19869        3.21814       -0.67171
O         18.26814        3.70402        0.12406
C         19.36991        2.89410        0.30821
C         20.34781        3.39795        1.17637
C         21.49398        2.65900        1.43065
C         21.72264        1.40482        0.83002
C         20.72472        0.92222       -0.02195
C         19.55593        1.64832       -0.29192
C         23.01838        0.63677        1.12063
C         24.28705        1.45317        0.70054
C         24.56865        1.98332       -0.73862
C         24.61025        0.87170       -1.80535
C         23.56883        3.06715       -1.18973
C         25.97011        2.63077       -0.66892
C         23.12690        0.43183        2.65481
C         23.01485       -0.77403        0.49997
N          9.77185        3.31216       -1.81383
C          7.88892        2.87411       -3.39860
C          8.52803        3.72764       -4.50037
C          7.92357        3.59483       -5.90257
C          8.45549        2.45407       -6.85772
C          8.28006        0.92135       -6.51343
C          6.86109        0.25934       -6.28627
C          5.73265        0.29637       -7.39538
C          5.94551       -0.35075       -8.82353
C          6.25827       -1.89279       -8.99732
C          5.24777       -2.94687       -8.40777
F          3.98665       -2.66398       -8.77153
F          5.57823       -4.15937       -8.88155
F          5.31959       -2.98161       -7.06317
F          6.30586       -2.09459      -10.33790
F          7.48534       -2.15524       -8.47760
F          4.79993       -0.08875       -9.50092
F          6.96329        0.31109       -9.43318
F          4.65074       -0.30045       -6.82913
F          5.42622        1.59978       -7.61730
F          7.10890       -1.03485       -5.96938
F          6.30916        0.85422       -5.18633
F          8.91188        0.23410       -7.48937
F          8.96668        0.69787       -5.34203
F          7.93561        2.66510       -8.08691
F          9.81319        2.63129       -6.93038
F          6.55956        3.52963       -5.84376
F          8.23784        4.74824       -6.58425
H          5.40241       -2.62371        1.05679
H          7.54926       -2.83067        2.30140
H          8.09787       -1.22036        4.12416
H          6.46812        0.57071        4.72178
H          4.31464        0.76204        3.48698
H          2.71601       -2.33142        3.49600
H          1.34675       -4.40698        3.32821
H          0.57400       -5.21371        1.10251
H          1.17994       -3.94637       -0.95592
H          2.54478       -1.86789       -0.78048
H          5.63151        0.25674       -0.23867
H          6.26771        1.23995        1.10246
H          5.85898        3.30062       -0.49919
H          5.68966        2.11262       -1.78836
H          8.03074        1.23961       -1.22955
H          8.15466        2.46164        0.04157
H          7.55615        4.81064       -0.55697
H          7.16469        5.15453       -2.26317
H          9.32018        6.39271       -1.38702
H         11.71868        5.92226       -1.77552
H         12.88301        3.69012       -2.78362
H         12.41737        3.11911       -1.15288
H         13.66227        4.98138       -0.09320
H         14.08701        5.64580       -1.70175
H         15.91734        4.52454        0.46945
H         16.47557        5.22539       -1.08088
H         17.51309        3.05396       -1.71778
H         16.80185        2.26683       -0.27345
H         20.18772        4.37000        1.64371
H         22.23922        3.08380        2.10432
H         20.84472       -0.04369       -0.51076
H         18.81379        1.22651       -0.96906
H         25.15049        0.82659        0.98488
H         24.33947        2.33143        1.36636
H         23.61027        0.47743       -2.02896
H         25.25017        0.03192       -1.49714
H         25.01749        1.27068       -2.74636
H         22.55821        2.66738       -1.33854
H         23.89921        3.50429       -2.14417
H         23.50018        3.88322       -0.45582
H         26.73905        1.89482       -0.39071
H         25.99839        3.44239        0.07345
H         26.25013        3.05803       -1.64289
H         23.18966        1.38483        3.19684
H         24.02776       -0.14940        2.89995
H         22.25239       -0.11577        3.03330
H         22.86919       -0.77750       -0.58546
H         22.22633       -1.39541        0.94888
H         23.97641       -1.26664        0.69995
H         10.36156        2.52898       -2.07619
H          6.79577        2.95133       -3.46877
H          8.12957        1.81278       -3.53784
H          9.60811        3.54555       -4.59045
H          8.40412        4.79799       -4.27716
