96

N          2.44999        1.46731       -0.77178
C          3.51404        0.57151       -1.22094
C          3.47875       -0.72555       -0.40511
C          4.63558       -1.67228       -0.78300
C          4.90452       -2.90057        0.06898
C          4.11810       -4.05388       -0.10722
C          2.84745       -4.00942       -0.93173
C          2.07163       -5.31683       -1.10876
C          0.75932       -5.10564       -1.87193
C         -0.04895       -6.39468       -2.04596
C         -1.42231       -6.17685       -2.68785
C         -2.22749       -7.46921       -2.85234
C         -3.62738       -7.25338       -3.43503
C         -4.42480       -8.55045       -3.60057
C         -5.83081       -8.34280       -4.17142
C         -6.61511       -9.64623       -4.34992
C         -8.01549       -9.45039       -4.93870
C         -8.78780      -10.75992       -5.12515
C        -10.18099      -10.57654       -5.73490
C        -10.94396      -11.89143       -5.92199
C        -12.33333      -11.72007       -6.54536
C        -13.08074      -13.04292       -6.73088
C          4.53857       -5.28582        0.45408
C          5.75268       -5.42443        1.08871
C          6.55539       -4.29208        1.31618
C          6.06861       -2.99070        0.91183
C          6.77327       -1.87101        1.45720
N          7.99606       -2.08174        1.98757
C          8.56673       -3.30499        2.20991
C          7.82918       -4.41670        1.93366
C          6.24308       -0.48138        1.65274
C          5.07456       -0.40774        2.66923
C          5.46284       -0.73854        4.11529
N          5.84213       -2.13829        4.28448
C          4.73638       -3.10175        4.24888
C          5.21565       -4.47782        4.71749
O          4.27435       -5.50587        4.42985
O          4.59904        0.93140        2.55583
H          2.30464        2.22815       -1.43429
H          2.69471        1.89495        0.12249
H          4.53309        1.01154       -1.15798
H          3.34335        0.34229       -2.28454
H          2.50410       -1.20560       -0.56052
H          3.51778       -0.46155        0.65993
H          5.56506       -1.09373       -0.87609
H          4.44597       -2.04372       -1.80374
H          3.08741       -3.59825       -1.92867
H          2.17099       -3.26548       -0.48020
H          1.83465       -5.75249       -0.12330
H          2.68983       -6.06037       -1.63995
H          0.97140       -4.66475       -2.86152
H          0.14640       -4.36071       -1.33439
H         -0.18508       -6.87219       -1.05938
H          0.53157       -7.11302       -2.65075
H         -1.29716       -5.69415       -3.67299
H         -1.99939       -5.46316       -2.07366
H         -2.31616       -7.96903       -1.87137
H         -1.66695       -8.16936       -3.49651
H         -3.54319       -6.74869       -4.41362
H         -4.18911       -6.55882       -2.78566
H         -4.49971       -9.05921       -2.62310
H         -3.86448       -9.24064       -4.25576
H         -5.75676       -7.82555       -5.14436
H         -6.39683       -7.66199       -3.51126
H         -6.69728      -10.15893       -3.37512
H         -6.04035      -10.32925       -5.00026
H         -7.93254       -8.93410       -5.91147
H         -8.59533       -8.77279       -4.28727
H         -8.88061      -11.27043       -4.15018
H         -8.19860      -11.44071       -5.76489
H        -10.08757      -10.06676       -6.71020
H        -10.77337       -9.89735       -5.09645
H        -11.04380      -12.39761       -4.94527
H        -10.34542      -12.57299       -6.55245
H        -12.23326      -11.21283       -7.52005
H        -12.93321      -11.04242       -5.91419
H        -12.52360      -13.72774       -7.38767
H        -14.07230      -12.88789       -7.17837
H        -13.22769      -13.55685       -5.76902
H          3.91235       -6.16616        0.31968
H          6.09826       -6.40255        1.42372
H          8.46828       -1.26408        2.36929
H          9.56520       -3.30576        2.63915
H          8.22283       -5.40413        2.17128
H          5.87097       -0.04521        0.71963
H          7.04861        0.18196        2.00570
H          4.29458       -1.12039        2.34507
H          4.59975       -0.45128        4.75753
H          6.30776       -0.10012        4.41801
H          6.35154       -2.23869        5.16327
H          4.36875       -3.20956        3.21696
H          3.87284       -2.77406        4.86597
H          5.46841       -4.45236        5.79390
H          6.13430       -4.74221        4.17453
H          3.56802       -5.48255        5.09366
H          3.93044        1.08293        3.24414
