48

C          1.47031        3.66580        5.67535
C          2.99801        3.69472        5.58889
C          3.52471        4.84267        4.72107
C          5.05342        4.91137        4.62552
N          5.64054        3.72381        4.00076
C          6.41565        2.83992        4.67374
O          6.77463        2.96873        5.84214
C          6.85885        1.58966        3.88544
C          8.36220        1.41757        4.10502
O          9.12103        2.36388        3.31358
C          9.26332        1.80605        2.04955
N          9.68428        0.35555        2.37653
C          9.02957        0.05724        3.73588
C          8.13565       -1.18152        3.65859
C          8.91123       -2.44278        3.38475
C          9.12247       -3.02535        2.19990
Br         8.47144       -2.28419        0.56408
Br         9.70151       -3.26184        4.91155
C         10.27733        2.55234        1.20973
C          9.85437        3.99964        0.94404
C         10.81406        4.77950        0.06727
Br        12.54511        4.99771        0.98265
Br         8.09588        4.02670       -0.00196
H          1.12109        2.82707        6.29190
H          1.01361        3.55884        4.67995
H          1.07672        4.59081        6.12066
H          3.35915        2.73357        5.18596
H          3.43015        3.77808        6.59940
H          3.17807        5.80694        5.12731
H          3.09375        4.77490        3.70601
H          5.50741        4.98292        5.62289
H          5.36283        5.79766        4.05097
H          5.39473        3.51897        3.03764
H          6.59005        1.63314        2.81893
H          6.31243        0.74361        4.32841
H          8.56438        1.66375        5.15706
H          8.30244        1.70027        1.51486
H         10.70674        0.29146        2.44943
H          9.37088       -0.31735        1.64539
H          9.85830       -0.12623        4.43187
H          7.36235       -1.05249        2.88548
H          7.61704       -1.28020        4.62261
H          9.67947       -3.94639        2.04940
H         10.42258        2.02522        0.25365
H         11.24473        2.58557        1.73960
H          9.65717        4.52698        1.88407
H         10.44818        5.79232       -0.11951
H         11.02534        4.27394       -0.88120
