58

C          1.06245        3.90161        0.09419
O          2.46334        3.69461        0.23656
C          3.05719        3.23206       -0.95914
C          4.54499        3.04938       -0.68869
O          5.14175        2.63479       -1.92289
C          6.52570        2.40502       -1.84562
C          6.91236        1.93428       -3.25674
N          8.36497        1.92297       -3.48927
C          9.12003        0.84848       -3.61838
C          8.60998       -0.55274       -3.56264
C          8.03622       -0.98442       -4.94161
O          7.43184       -2.27695       -4.86371
C          6.16539       -2.30302       -4.31361
O          5.64440       -1.30207       -3.85984
C          5.58109       -3.68805       -4.34709
C          6.23512       -4.64048       -3.32140
C          5.59335       -6.02832       -3.35245
S         10.76837        1.15365       -3.96470
C         10.56695        2.98408       -3.71376
C          9.04533        3.20150       -3.79062
C         11.21482        3.42329       -2.39899
C         12.73465        3.21770       -2.37545
C         13.37468        3.54946       -1.02449
C         12.97391        2.56989        0.07584
O         12.23050        1.62806       -0.08817
O         13.50633        2.80530        1.30316
H          0.69367        4.26802        1.05916
H          0.54078        2.96180       -0.16192
H          0.84538        4.65272       -0.68685
H          2.91676        3.95933       -1.78358
H          2.61441        2.26938       -1.28243
H          4.70424        2.28704        0.09516
H          4.98950        4.00122       -0.34424
H          6.77582        1.62981       -1.09434
H          7.07498        3.32855       -1.56672
H          6.47148        2.63313       -3.98396
H          6.49411        0.93882       -3.45277
H          7.81346       -0.62885       -2.81088
H          9.42342       -1.23086       -3.27547
H          8.84284       -1.08109       -5.67819
H          7.29673       -0.25173       -5.29543
H          5.71030       -4.10111       -5.35922
H          4.50660       -3.58955       -4.14531
H          6.13735       -4.20625       -2.31398
H          7.31152       -4.71794       -3.53510
H          4.52008       -5.97863       -3.12027
H          6.06435       -6.69240       -2.61609
H          5.70120       -6.49532       -4.34196
H         11.06073        3.46406       -4.56966
H          8.72422        3.51424       -4.79725
H          8.71813        3.96510       -3.07205
H         10.75379        2.88081       -1.56015
H         10.98288        4.49520       -2.26982
H         13.20472        3.83522       -3.15636
H         12.96679        2.16640       -2.60954
H         13.11605        4.57226       -0.70089
H         14.47288        3.52921       -1.11582
H         14.09864        3.57830        1.28144
