77

C         12.51056        7.74899       -0.62167
C         12.58063        6.27317       -0.22264
C         12.94463        5.34329       -1.38571
C         12.99993        3.86439       -0.99117
C         13.35348        2.92403       -2.14807
C         13.37299        1.44759       -1.74062
C         13.69693        0.48438       -2.88744
C         13.66765       -0.98548       -2.45754
C         13.93465       -1.98003       -3.59177
C         13.84373       -3.43795       -3.12910
C         14.02385       -4.46479       -4.25420
C         13.81170       -5.88343       -3.73783
O         13.78568       -6.89860       -4.76723
C         15.05285       -7.28613       -5.25657
N         14.96124       -8.66689       -5.72135
C         14.86052       -8.97700       -7.03148
N         15.29229      -10.16973       -7.50534
C         15.04741      -10.26742       -8.95464
C         14.61786       -8.83618       -9.33024
N         14.33906       -8.21715       -8.01631
C         13.38344       -7.11904       -7.90789
C         13.87812       -5.85983       -8.63100
C         12.77043       -4.78576       -8.65446
F         11.73067       -5.19572       -9.42244
F         12.29263       -4.50021       -7.42294
F         13.25742       -3.63707       -9.18637
O         15.03737       -5.39908       -7.96740
C         14.73543       -9.69291       -4.67403
C         15.87296      -10.65911       -4.30801
C         17.24362      -10.08796       -3.92644
S         18.21665       -9.55050       -5.36068
O         17.98414      -10.50583       -6.44201
O         18.04071       -8.13895       -5.58250
O         19.73272       -9.73880       -4.85564
H         12.25202        8.38717        0.23462
H         11.75211        7.91644       -1.40111
H         13.47417        8.10178       -1.01920
H         11.61141        5.95932        0.20100
H         13.31827        6.14456        0.58768
H         13.91967        5.64845       -1.80544
H         12.21156        5.47650       -2.20116
H         12.02462        3.56570       -0.56749
H         13.73375        3.73130       -0.17653
H         14.33726        3.20518       -2.56333
H         12.62792        3.06624       -2.96845
H         12.39134        1.17898       -1.31165
H         14.10493        1.30357       -0.92631
H         14.68881        0.72837       -3.30670
H         12.97472        0.63871       -3.70849
H         12.68254       -1.20871       -2.01085
H         14.40497       -1.14478       -1.65105
H         14.93055       -1.78948       -4.02833
H         13.20761       -1.81110       -4.40522
H         12.86022       -3.59840       -2.65335
H         14.59324       -3.61757       -2.33875
H         15.02651       -4.36240       -4.70226
H         13.29677       -4.27183       -5.05795
H         12.82997       -5.96798       -3.25099
H         14.58313       -6.15417       -2.99152
H         15.80554       -7.25103       -4.45018
H         15.41078       -6.65904       -6.08632
H         16.17254      -10.53455       -7.12337
H         14.26087      -11.00734       -9.15790
H         15.96184      -10.57978       -9.47105
H         13.70943       -8.81900       -9.94598
H         15.40782       -8.27632       -9.85366
H         13.19852       -6.89567       -6.84862
H         12.43218       -7.44055       -8.36103
H         14.08160       -6.08247       -9.69573
H         15.40227       -4.63749       -8.44860
H         13.86356      -10.29512       -4.96539
H         14.43015       -9.11562       -3.79134
H         16.00913      -11.41798       -5.09108
H         15.50937      -11.21428       -3.42926
H         17.84871      -10.86967       -3.44904
H         17.19893       -9.22570       -3.24735
H         20.07483      -10.59548       -5.17978
