63

C         12.18792       -0.06545        0.90797
C         11.29546       -0.93485        0.01895
C          9.82770       -0.94865        0.46103
C          8.92495       -1.79103       -0.44822
C          7.46532       -1.83917        0.02337
C          6.47615       -2.48788       -0.96187
C          6.79533       -3.95857       -1.29882
C          6.81388       -4.90562       -0.15808
N          6.57863       -6.11290       -0.53665
C          6.35380       -6.24936       -1.99594
C          6.05308       -4.78362       -2.42666
C          4.54199       -4.48616       -2.74734
C          3.57062       -4.55073       -1.50564
C          2.23464       -3.81522       -1.74071
C          3.23415       -5.96377       -0.99372
C          4.45320       -3.05940       -3.36638
O          5.56386       -2.83920       -4.24483
C          4.11698       -5.46669       -3.86526
C          7.57765       -6.90937       -2.67053
C          8.20512       -8.04848       -1.85120
O          7.18265       -8.70137       -1.09536
C          7.62781       -9.92170       -0.46848
C          6.47646      -10.50358        0.32634
H         13.23085       -0.08234        0.56488
H         12.17641       -0.41304        1.95159
H         11.85539        0.98278        0.90459
H         11.68105       -1.96891        0.00783
H         11.35576       -0.57929       -1.02343
H          9.44398        0.08561        0.49146
H          9.76073       -1.32473        1.49711
H          9.34818       -2.81021       -0.50992
H          8.96181       -1.38588       -1.47480
H          7.11432       -0.81022        0.19909
H          7.41049       -2.32766        1.01282
H          6.50163       -1.93255       -1.90984
H          5.45602       -2.40038       -0.56356
H          7.86358       -3.94403       -1.60924
H          7.03814       -4.67703        0.88628
H          6.64536       -6.97197        0.02420
H          5.49916       -6.92041       -2.11843
H          6.57857       -4.58823       -3.36874
H          4.07511       -4.01616       -0.68007
H          1.67196       -4.24786       -2.58055
H          2.35793       -2.74248       -1.93015
H          1.60183       -3.91206       -0.84899
H          2.71260       -6.56003       -1.75525
H          2.55642       -5.88373       -0.13335
H          4.09966       -6.54420       -0.65306
H          4.43580       -2.29063       -2.57734
H          3.50767       -2.98110       -3.92362
H          5.32890       -2.13463       -4.86619
H          4.21999       -6.52470       -3.59274
H          4.71814       -5.29181       -4.76750
H          3.06369       -5.31046       -4.13270
H          8.35537       -6.15976       -2.87932
H          7.22550       -7.28109       -3.64251
H          8.98197       -7.65546       -1.16573
H          8.70476       -8.76570       -2.52459
H          8.49554       -9.70426        0.18220
H          7.96514      -10.62176       -1.25329
H          6.14781       -9.81639        1.11898
H          6.78941      -11.44016        0.80605
H          5.61988      -10.72329       -0.32412
