39

C          2.90545       -1.11688       -2.28920
C          2.53079       -0.37657       -1.00381
C          2.99348       -1.06530        0.28665
N          4.47100       -1.14839        0.45121
C          5.21896       -0.03031        0.49376
N          4.73700        1.13131        0.96773
N          6.49082       -0.08645        0.05247
C          6.99165       -1.14534       -0.81729
O          6.03458       -2.10670       -1.00988
C          5.28400       -2.35729        0.20607
C          4.54032       -3.67920        0.06336
C          5.61389       -4.72164       -0.30237
O          6.61331       -4.89115        0.36630
O          5.26747       -5.40696       -1.39972
C          6.20738       -6.45418       -1.83107
C          7.29874       -5.87746       -2.71362
C          3.88638       -4.13524        1.38289
I          8.90678       -1.88593        0.05564
H          2.53011       -0.57386       -3.16551
H          2.46670       -2.12466       -2.31641
H          3.99279       -1.22150       -2.40712
H          1.43580       -0.28938       -0.92692
H          2.90766        0.65748       -1.03674
H          2.62350       -2.09412        0.31612
H          2.57113       -0.57608        1.17824
H          3.87206        1.15917        1.49256
H          5.21207        2.00792        0.79240
H          7.16528        0.60865        0.36234
H          7.29721       -0.75521       -1.79371
H          6.01279       -2.44658        1.03023
H          3.81290       -3.62525       -0.75786
H          5.56982       -7.16249       -2.37261
H          6.61708       -6.93505       -0.93396
H          6.87336       -5.36683       -3.58744
H          7.93784       -6.69462       -3.07580
H          7.93269       -5.17478       -2.15779
H          4.65518       -4.28840        2.15152
H          3.36763       -5.08911        1.22663
H          3.15200       -3.41880        1.77129
