56

C          6.82588        2.32767       -9.52127
C          6.35350        1.45503       -8.35740
C          7.03619        1.80155       -7.03004
C          6.55636        0.93008       -5.86465
C          7.26011        1.19730       -4.54605
O          6.92334        2.53196       -4.08765
C          7.40408        2.85584       -2.82205
N          8.84362        3.21848       -2.79687
C          9.39113        4.34131       -3.29505
N         10.72798        4.60889       -3.30650
C         10.91047        5.87206       -3.84905
N          9.75624        6.39041       -4.17068
N          8.80971        5.43249       -3.84414
C          7.36566        5.74958       -4.03818
O          6.70045        5.97658       -2.84325
C          6.95521        7.26838       -2.22561
C          6.10808        7.37272       -0.97091
C          6.35379        8.68112       -0.21073
C          5.53130        8.78465        1.07848
C          5.79944       10.07416        1.85599
C         12.25888        6.49259       -4.02831
C         13.14964        6.27818       -2.82705
C         14.26886        5.54908       -2.85305
H          6.31509        2.05937      -10.45527
H          7.90710        2.21711       -9.69103
H          6.62566        3.39230       -9.32838
H          6.53713        0.39329       -8.59174
H          5.26188        1.55488       -8.23868
H          6.85604        2.86413       -6.79655
H          8.12981        1.68906       -7.14328
H          6.71807       -0.13319       -6.10704
H          5.47138        1.05218       -5.71761
H          8.35626        1.11573       -4.67166
H          6.94173        0.47458       -3.77346
H          7.30947        2.01860       -2.11050
H          6.82972        3.71711       -2.45796
H          9.49771        2.48722       -2.53783
H         11.47068        4.02903       -2.92226
H          6.89944        4.88398       -4.52725
H          7.37848        6.62160       -4.71103
H          6.70484        8.06078       -2.95274
H          8.02872        7.35491       -1.98230
H          6.33666        6.51639       -0.31559
H          5.04546        7.28669       -1.24596
H          6.11935        9.54009       -0.86226
H          7.42602        8.76862        0.03724
H          5.75266        7.91354        1.71785
H          4.45908        8.71628        0.83071
H          6.85891       10.15647        2.14025
H          5.20415       10.11530        2.77764
H          5.54621       10.96138        1.25748
H         12.09457        7.56214       -4.22705
H         12.73088        6.06402       -4.92807
H         12.83569        6.76936       -1.90066
H         14.62037        5.07163       -3.77069
H         14.89142        5.43133       -1.96668
