41

C          1.68255       -4.80371        3.80392
C          3.06497       -4.14903        3.73915
C          3.36123       -3.57773        2.36255
O          4.66585       -2.95511        2.40701
C          5.19679       -2.66367        1.14930
N          6.66126       -2.50286        1.33586
C          7.31388       -1.30645        0.82595
C          7.24800       -0.03833        1.72922
F          5.95817        0.22520        2.04520
F          7.93299       -0.30115        2.89656
F          8.62561       -1.57790        0.58943
F          6.72771       -0.98253       -0.35817
C          7.33343       -3.48538        2.02370
N          8.32554       -3.18726        2.86661
N          6.94064       -4.74445        1.86108
C          7.08525       -5.82621        2.82205
C          5.91961       -6.78746        2.54518
O          5.12136       -6.57602        1.64722
O          5.93862       -7.81140        3.38287
C          4.85908       -8.81514        3.24975
C          3.67183       -8.43887        4.11276
H          1.50223       -5.23329        4.79734
H          1.58030       -5.61242        3.06545
H          0.88291       -4.07519        3.61031
H          3.84783       -4.88346        3.98938
H          3.14016       -3.34199        4.48348
H          2.60520       -2.82734        2.07107
H          3.36765       -4.37754        1.59924
H          4.82145       -1.72082        0.72301
H          4.98321       -3.47032        0.41899
H          7.70745        0.83136        1.23542
H          8.52155       -2.21876        3.10355
H          8.98443       -3.89726        3.16408
H          6.19362       -4.95200        1.18710
H          7.01863       -5.45231        3.85528
H          8.03636       -6.36937        2.70703
H          5.33864       -9.74220        3.58276
H          4.59901       -8.89172        2.18705
H          3.96456       -8.32505        5.16431
H          2.92143       -9.23919        4.05509
H          3.19892       -7.51118        3.76655
