76

C          1.94427        1.09042        3.12252
C          2.22883        0.40083        1.80595
O          3.61197        0.69972        1.42385
P          4.35679       -0.21797        0.35003
O          4.27859       -1.68881        0.53757
O          3.82147        0.27894       -1.09524
C          3.18129       -0.65481       -2.01227
C          4.15909       -1.13304       -3.07335
C          6.04089        0.47235        0.43746
C          6.95677       -0.33136       -0.48936
C          8.46705       -0.04364       -0.29892
C          9.23775       -1.05682       -1.06879
N          9.64997       -2.19650       -0.54886
N         10.09261       -2.90590       -1.61482
C          9.97383       -2.25712       -2.77607
N          9.43734       -1.05406       -2.44667
C          9.19828        0.07595       -3.37240
C         10.51567        0.66417       -3.87950
C         10.33635        1.62475       -5.06229
N         11.62790        1.79818       -5.70678
C         11.65775        2.79664       -6.77742
C         12.99036        2.80025       -7.49519
C         14.14121        2.21082       -6.95693
C         15.35456        2.20615       -7.65077
C         15.43238        2.80709       -8.90775
C         14.30341        3.41375       -9.46044
C         13.09344        3.41293       -8.75947
O         11.95811        4.00361       -9.26112
C         10.32338       -2.82190       -4.11614
C          9.35565       -2.46538       -5.23303
C          9.86292       -1.81256       -6.36458
C          9.02398       -1.42727       -7.40985
C          7.65780       -1.69975       -7.32354
C          7.15088       -2.36985       -6.20850
C          7.97739       -2.77032       -5.14836
C          7.37615       -3.50251       -3.97256
H          0.90426        0.89902        3.42061
H          2.08273        2.17623        3.03895
H          2.60320        0.71121        3.91430
H          1.57179        0.77003        1.00344
H          2.11724       -0.69049        1.88620
H          2.34987       -0.09351       -2.45907
H          2.77751       -1.50221       -1.44199
H          4.61656       -0.28327       -3.59977
H          3.63028       -1.74909       -3.81494
H          4.94963       -1.74892       -2.62335
H          6.35709        0.37753        1.48710
H          6.01589        1.54254        0.18731
H          6.67597       -0.14668       -1.53823
H          6.78798       -1.40314       -0.30275
H          8.74730       -0.16018        0.75655
H          8.73001        0.98169       -0.59740
H         10.45299       -3.84677       -1.47474
H          8.60505        0.81407       -2.82065
H          8.58220       -0.29782       -4.20030
H         11.16603       -0.15766       -4.21620
H         11.05496        1.16424       -3.06218
H          9.98544        2.60769       -4.70915
H          9.54663        1.23535       -5.74390
H         11.93328        0.90158       -6.09410
H         11.46884        3.78767       -6.32658
H         10.85140        2.64904       -7.52430
H         14.08217        1.76317       -5.96420
H         16.23458        1.74050       -7.20746
H         16.37120        2.81098       -9.46221
H         14.35897        3.89339      -10.44118
H         12.16442        4.39432      -10.12571
H         10.39836       -3.91519       -3.98958
H         11.33420       -2.47945       -4.38837
H         10.93369       -1.60624       -6.42821
H          9.43614       -0.92282       -8.28367
H          6.98643       -1.40450       -8.13020
H          6.08474       -2.59813       -6.15679
H          6.34671       -3.80670       -4.19363
H          7.32991       -2.88182       -3.06319
H          7.93717       -4.41444       -3.71852
