73

C          0.71667       -0.29630       -0.17818
C          2.24448       -0.25335       -0.10747
C          2.80143        1.15682        0.11216
C          4.33103        1.21028        0.16096
C          4.89113        2.61614        0.39691
C          6.42157        2.67315        0.38689
C          6.98652        4.06878        0.66795
C          8.51370        4.13729        0.57050
C          9.08149        5.52641        0.87786
C         10.60486        5.60271        0.73427
C         11.16279        6.98947        1.06550
C         12.69415        7.06674        0.86294
C         13.24875        8.40734        1.18309
N         13.42943        8.88706        2.47670
C         13.88883       10.15508        2.37580
N         14.19434       10.96475        3.42677
C         14.02243       10.57176        4.70809
C         13.86114       10.20648        5.84856
N         13.96953       10.42920        1.06751
N         13.58127        9.33676        0.31879
C         14.43825       11.65424        0.40557
C         15.94065       11.65146        0.11037
C         16.35627       12.91366       -0.65415
C         17.85444       12.95850       -0.97329
C         18.25751       14.20367       -1.76946
C         19.75146       14.26019       -2.10134
C         20.14854       15.50364       -2.90336
C         21.64066       15.55435       -3.23598
H          0.34876       -1.31970       -0.33388
H          0.33915        0.32289       -1.00554
H          0.26417        0.08236        0.75051
H          2.66844       -0.66820       -1.03764
H          2.59598       -0.91154        0.70500
H          2.38981        1.56804        1.05100
H          2.43903        1.82053       -0.69278
H          4.73777        0.81062       -0.78485
H          4.69541        0.53546        0.95549
H          4.51593        3.00054        1.36189
H          4.49765        3.30069       -0.37514
H          6.79028        2.32158       -0.59294
H          6.81995        1.96265        1.13257
H          6.66689        4.39713        1.67273
H          6.54568        4.79098       -0.04183
H          8.82700        3.83138       -0.44296
H          8.95925        3.40048        1.26172
H          8.79406        5.81960        1.90281
H          8.61612        6.26855        0.20622
H         10.88965        5.33283       -0.29695
H         11.07688        4.85066        1.38994
H         10.90953        7.24864        2.10783
H         10.68355        7.74968        0.42840
H         12.94777        6.85205       -0.18403
H         13.19710        6.30620        1.48193
H         13.25886        8.40324        3.35624
H         14.57696       11.88851        3.23439
H         13.72606        9.90213        6.86667
H         14.14605       12.50773        1.03833
H         13.85292       11.72538       -0.52042
H         16.18146       10.75474       -0.48138
H         16.51006       11.57497        1.05221
H         16.08072       13.80935       -0.07022
H         15.78119       12.97207       -1.59392
H         18.13296       12.05446       -1.54144
H         18.43164       12.91991       -0.03323
H         17.97548       15.10753       -1.20160
H         17.67489       14.23928       -2.70640
H         20.03465       13.35585       -2.66804
H         20.33677       14.22788       -1.16556
H         19.86530       16.40596       -2.33566
H         19.56060       15.53510       -3.83604
H         22.25309       15.55733       -2.32214
H         21.89358       16.45706       -3.80809
H         21.94524       14.68411       -3.83597
