54

C          8.73808       -2.37461       -1.79933
C          7.44241       -2.12549       -2.57495
C          7.20516       -0.64007       -2.87164
C          5.94184       -0.34640       -3.69013
N          4.68907       -0.74557       -3.01696
C          4.05780       -1.86819       -3.42677
O          4.50652       -2.63298       -4.29415
C          2.69680       -2.20917       -2.76653
C          2.04232       -3.26891       -3.59425
N          0.90142       -2.92998       -4.18940
N          0.38132       -3.84295       -4.99901
C          0.86226       -5.06649       -5.29955
C          2.06582       -5.45687       -4.67238
C          2.64778       -4.52513       -3.81571
C          2.66789       -6.81740       -4.87345
C          2.27568       -7.78288       -3.73027
C          2.69124       -9.23652       -4.03299
C          2.22959      -10.15536       -3.00359
C          1.81639      -10.89055       -2.13683
C          0.07081       -5.86726       -6.29097
C         -0.83603       -6.98377       -5.72348
C         -1.81648       -6.45009       -4.65443
F         -2.45416       -5.31908       -5.05762
F         -2.75197       -7.37304       -4.36151
F         -1.14982       -6.14874       -3.50352
O         -1.52384       -7.48902       -6.84220
C          4.17397        0.15589       -1.98854
H          8.88209       -3.44399       -1.59513
H          8.73607       -1.84957       -0.83276
H          9.61491       -2.02443       -2.36303
H          6.59018       -2.52568       -2.00005
H          7.45554       -2.68598       -3.52339
H          8.05598       -0.23478       -3.44344
H          7.18725       -0.06955       -1.92685
H          5.97207       -0.88309       -4.64619
H          5.86525        0.73065       -3.90411
H          2.03264       -1.33939       -2.69922
H          2.87509       -2.57728       -1.74302
H         -0.50158       -3.54685       -5.42305
H          3.57573       -4.76537       -3.29924
H          3.76263       -6.72023       -4.91917
H          2.35084       -7.24000       -5.83795
H          1.19010       -7.74809       -3.55740
H          2.73984       -7.45407       -2.78861
H          3.78788       -9.30281       -4.13060
H          2.27940       -9.54553       -5.00980
H          1.46906      -11.55349       -1.37199
H          0.75495       -6.34739       -7.00329
H         -0.57403       -5.20029       -6.88221
H         -0.23439       -7.76010       -5.21756
H         -2.04910       -8.26375       -6.57917
H          5.02024        0.60728       -1.45730
H          3.57432       -0.37872       -1.24480
H          3.56971        0.96614       -2.42671
