89

C          1.13925       -0.85229       -0.81409
C          2.65367       -0.64785       -0.72348
C          3.14893        0.57399       -1.50564
C          4.66617        0.77291       -1.44055
C          5.16466        1.98512       -2.23438
C          6.68760        2.14453       -2.20972
C          7.20036        3.34802       -3.00750
C          8.72883        3.43507       -3.05023
C          9.26836        4.63149       -3.84110
C         10.79385        4.61241       -3.97915
C         11.37203        5.80279       -4.75177
C         12.87891        5.66896       -4.98995
C         13.50422        6.84619       -5.74757
C         14.97917        6.58971       -6.07407
C         15.63732        7.76103       -6.80824
N         17.03033        7.45359       -7.19096
C         17.38770        6.97430       -8.38804
N         18.70342        6.71176       -8.34201
C         19.21755        7.02260       -7.09566
C         18.14758        7.48893       -6.35600
C         18.12490        8.06191       -4.98180
C         18.60689        9.52101       -4.98239
O         19.47423        9.93949       -5.72353
O         17.95585       10.22541       -4.04823
C         18.32221       11.64485       -3.91392
C         17.55917       12.51913       -4.89902
C         16.03211       12.41845       -4.79163
C         15.30801       13.36329       -5.75300
C         20.66918        6.87599       -6.76201
C         20.91176        6.32982       -5.36231
C         20.29019        5.12782       -4.98977
C         20.46874        4.58569       -3.71828
C         21.28370        5.25344       -2.80115
C         21.91279        6.44231       -3.16959
C         21.74778        7.00454       -4.44666
C         22.47103        8.28249       -4.79706
H          0.81578       -1.73488       -0.24510
H          0.81740       -0.99361       -1.85675
H          0.59404        0.01673       -0.41639
H          3.17048       -1.54877       -1.09579
H          2.95064       -0.54653        0.33423
H          2.64314        1.47935       -1.12574
H          2.83948        0.47823       -2.56169
H          5.16761       -0.13685       -1.81601
H          4.97789        0.87364       -0.38587
H          4.69141        2.90178       -1.84054
H          4.82613        1.89804       -3.28204
H          7.15247        1.22422       -2.60592
H          7.03116        2.22713       -1.16348
H          6.78737        4.27787       -2.57848
H          6.81163        3.29360       -4.03984
H          9.12745        2.50354       -3.49019
H          9.12380        3.47205       -2.01967
H          8.94934        5.57043       -3.35595
H          8.81341        4.64074       -4.84722
H         11.09362        3.67668       -4.48356
H         11.25336        4.57246       -2.97596
H         11.16122        6.73839       -4.20561
H         10.85707        5.89509       -5.72392
H         13.06943        4.73768       -5.55177
H         13.39513        5.54760       -4.02166
H         13.40573        7.76867       -5.15033
H         12.94582        7.02387       -6.68273
H         15.06801        5.68743       -6.70143
H         15.53525        6.37586       -5.14695
H         15.65337        8.67429       -6.19727
H         15.09934        8.00259       -7.73503
H         16.72965        6.80887       -9.23275
H         19.24567        6.34848       -9.12107
H         18.82391        7.49401       -4.34763
H         17.13796        7.98938       -4.51174
H         19.40749       11.73367       -4.04970
H         18.05674       11.87418       -2.87423
H         17.88925       12.28943       -5.92487
H         17.87776       13.55769       -4.70607
H         15.72370       12.63394       -3.75526
H         15.71845       11.37909       -4.98749
H         15.56551       14.41276       -5.54958
H         14.21739       13.26866       -5.66407
H         15.57728       13.15703       -6.79950
H         21.14668        7.85884       -6.88006
H         21.13798        6.21221       -7.50831
H         19.65410        4.60626       -5.70968
H         19.98276        3.64787       -3.44864
H         21.43558        4.84471       -1.80178
H         22.55651        6.95420       -2.45188
H         23.00909        8.67087       -3.92436
H         21.78548        9.06861       -5.14435
H         23.21655        8.12109       -5.59087
