108

C          4.75558       -2.96180       -5.18629
C          5.92026       -2.78547       -4.23117
O          5.72685       -1.61494       -3.37342
P          6.34578       -0.17955       -3.71292
O          7.28197       -0.17790       -4.87726
O          5.10634        0.82840       -3.82768
C          4.23910        0.82932       -5.00288
C          3.49106        2.14539       -5.03454
C          7.07406        0.37564       -2.14911
C          7.62134        1.80494       -2.25004
C          8.38147        2.22765       -0.97336
C          8.88330        3.62415       -1.07330
N          8.34440        4.66603       -0.49331
N          9.09203        5.73196       -0.93948
C         10.08034        5.35366       -1.78141
N         10.98547        6.13058       -2.38846
C         12.08934        5.49047       -3.11066
C         11.71576        4.94694       -4.50286
O         11.82754        5.98085       -5.50991
C         10.68861        6.68575       -5.80162
O          9.61905        6.50104       -5.25959
C         10.98539        7.74546       -6.83386
S         11.68576        9.22902       -6.00579
C         12.63574        3.79458       -4.91965
O         11.91541        2.78243       -5.65649
C         11.03897        2.04453       -4.94056
O         10.90266        2.15957       -3.72213
C         10.24035        1.14243       -5.83254
S          8.85093        2.17364       -6.47465
C         10.83641        7.59435       -2.38439
C         11.61102        8.30706       -1.26821
O         13.01896        8.13705       -1.35151
C         13.66646        8.80683       -2.44263
C         13.79018       10.32191       -2.26176
O         14.30175       10.78439       -3.50421
C         14.41407       12.14356       -3.71268
C         14.16745       13.12271       -2.74453
C         14.31200       14.47030       -3.08275
C         14.70759       14.88623       -4.36308
C         14.94046       13.87755       -5.31235
C         14.80041       12.52752       -5.00030
C         14.88229       16.37785       -4.67948
C         16.01503       17.02994       -3.81677
C         17.49063       16.52764       -3.76065
C         18.17255       16.44917       -5.14048
C         18.24723       17.57635       -2.91494
C         17.63039       15.16132       -3.05840
C         15.09850       16.63387       -6.18464
C         13.57170       17.11792       -4.30473
N          9.96113        4.00037       -1.86737
H          4.86782       -3.90923       -5.73201
H          4.71895       -2.15148       -5.92674
H          3.80172       -2.99268       -4.64317
H          6.87194       -2.67395       -4.76854
H          5.99845       -3.62714       -3.53132
H          3.55078       -0.02463       -4.91368
H          4.85871        0.69278       -5.90226
H          2.89943        2.28275       -4.12006
H          2.80468        2.15972       -5.89217
H          4.18445        2.99062       -5.13563
H          7.87702       -0.34408       -1.92433
H          6.31641        0.28090       -1.35712
H          6.79451        2.50851       -2.42368
H          8.29470        1.87957       -3.11640
H          9.22762        1.54647       -0.79210
H          7.72301        2.18070       -0.09536
H          8.89291        6.66016       -0.58651
H         12.46988        4.66782       -2.48745
H         12.90027        6.22249       -3.19463
H         10.66870        4.60993       -4.50427
H         10.07241        8.00871       -7.37605
H         11.75434        7.40625       -7.53722
H         10.49897        9.74110       -5.60246
H         13.10886        3.32707       -4.04592
H         13.40869        4.14950       -5.60975
H          9.80694        0.31436       -5.26368
H         10.84284        0.77667       -6.67070
H          7.90375        1.41724       -5.83951
H          9.76565        7.84205       -2.32322
H         11.16096        7.96163       -3.36790
H         11.33462        7.90465       -0.28165
H         11.31670        9.37279       -1.28553
H         13.15950        8.61959       -3.40566
H         14.66752        8.35909       -2.50001
H         14.46726       10.56351       -1.42411
H         12.80739       10.78470       -2.05352
H         13.87520       12.85579       -1.72922
H         14.12754       15.21087       -2.30350
H         15.24679       14.14009       -6.32388
H         14.98787       11.75585       -5.74775
H         15.65792       17.04459       -2.77263
H         16.04719       18.08961       -4.12481
H         18.04290       17.37791       -5.71495
H         17.78949       15.61453       -5.74251
H         19.25330       16.28630       -5.01454
H         18.22223       18.56793       -3.39072
H         19.30143       17.28919       -2.79014
H         17.80587       17.67482       -1.91168
H         17.19627       14.34275       -3.64534
H         17.14056       15.16440       -2.07352
H         18.69472       14.93034       -2.90084
H         15.97648       16.12743       -6.59832
H         15.23534       17.71034       -6.35693
H         14.21980       16.31581       -6.76459
H         13.34536       17.04552       -3.23260
H         12.72039       16.69980       -4.86022
H         13.65188       18.18577       -4.55443
H         10.45214        3.36764       -2.53125
