82

C          4.62133       -2.74107       -1.18117
C          5.42411       -1.98213       -0.12161
C          5.17279       -0.46951       -0.13616
C          5.96038        0.29129        0.93523
C          5.73403        1.80711        0.90725
C          6.51907        2.55381        1.99112
C          6.32985        4.07435        1.94392
C          7.12521        4.77714        3.05249
N          7.02361        6.24911        3.01112
C          6.09440        6.94669        3.68187
S          6.05080        8.64466        3.69713
S          4.91964        5.93540        4.56396
C          4.09350        7.05323        5.74618
C          2.65886        7.51867        5.41190
C          2.53863        8.98692        4.92557
C          2.17599        9.34255        3.47594
N          3.19253        8.82408        2.46107
C          2.95335        7.44390        1.89554
C          1.50665        7.27637        1.40509
N          0.54644        7.65624        2.44806
C          0.74643        8.99169        2.99078
C          1.22702        8.01421        0.08847
C          8.04529        6.93012        2.18930
C          9.31677        7.25720        2.98060
C         10.36469        7.96488        2.11550
C         11.63965        8.31311        2.89155
C         12.69381        9.03358        2.04512
C         13.96220        9.39113        2.82699
C         15.02489       10.10568        1.98454
C         16.28664       10.45953        2.77614
H          4.83381       -3.81813       -1.15007
H          4.85895       -2.38552       -2.19484
H          3.53894       -2.61259       -1.03143
H          6.50093       -2.17046       -0.26994
H          5.18408       -2.38057        0.87887
H          4.09310       -0.27830       -0.00180
H          5.42821       -0.06870       -1.13312
H          7.03775        0.08436        0.81191
H          5.69110       -0.09924        1.93227
H          4.65646        2.01936        1.02409
H          6.01541        2.20023       -0.08541
H          7.59272        2.31863        1.89078
H          6.21848        2.17815        2.98449
H          5.26045        4.32251        2.04650
H          6.65010        4.45976        0.96182
H          8.19380        4.53353        2.96519
H          6.79927        4.43203        4.04421
H          4.77428        7.90102        5.90761
H          4.08349        6.44625        6.66123
H          2.08662        7.43862        6.34623
H          2.17721        6.80668        4.72812
H          3.47150        9.51185        5.17722
H          1.75819        9.48600        5.51947
H          2.27987       10.43705        3.41269
H          4.17456        8.82341        2.91436
H          3.23139        9.49134        1.68158
H          3.18782        6.73043        2.69350
H          3.69607        7.30768        1.09688
H          1.36637        6.20033        1.22114
H          0.48977        6.94964        3.17914
H          0.05095        9.14128        3.82739
H          0.45522        9.72460        2.22076
H          1.37970        9.10216        0.15779
H          0.18412        7.85393       -0.20850
H          1.87896        7.64025       -0.71217
H          7.59713        7.84983        1.79171
H          8.27125        6.26056        1.34610
H          9.74214        6.33022        3.39990
H          9.04545        7.89625        3.83533
H          9.92773        8.88842        1.69792
H         10.62284        7.33049        1.24964
H         12.07523        7.38992        3.31207
H         11.37414        8.94440        3.75765
H         12.25444        9.95348        1.62087
H         12.96324        8.40132        1.18082
H         14.39754        8.47175        3.25684
H         13.69223       10.02722        3.68856
H         14.59017       11.02272        1.55191
H         15.29560        9.46608        1.12716
H         16.05667       11.13137        3.61653
H         17.03127       10.96204        2.14382
H         16.76101        9.55915        3.19421
