33

C          2.74860        5.55832        0.46896
C          3.43045        4.25680        0.87501
S          5.18174        4.33177        0.31686
C          5.65899        2.71975        0.69143
N          5.00603        1.72250        1.22036
N          5.88696        0.63923        1.26619
C          7.00673        1.06123        0.76711
O          6.97984        2.36548        0.36613
N          8.14825        0.27133        0.59267
C          9.35407        0.74906        0.15707
N          9.60278        2.04142       -0.02460
N         10.36080       -0.12752       -0.07793
N         11.57178        0.41120       -0.55142
C          7.98087       -1.12885        1.10115
C          7.10978       -2.01615        0.20383
C          7.57837       -2.25258       -1.21505
Br         9.37712       -3.06136       -1.34626
Br         6.88667       -3.70451        1.17730
H          1.70620        5.53219        0.81202
H          2.74212        5.69040       -0.62058
H          3.22897        6.43347        0.92567
H          2.97458        3.38019        0.39976
H          3.43616        4.10836        1.96137
H          8.91622        2.75913        0.17436
H         10.53899        2.25721       -0.36879
H         10.13793       -1.11296       -0.29529
H         11.74526        0.08487       -1.50550
H         12.33547        0.09157        0.04789
H          7.49336       -1.04373        2.07939
H          8.97259       -1.56652        1.25375
H          6.09605       -1.59428        0.15483
H          7.63853       -1.31337       -1.78000
H          6.91981       -2.95026       -1.73968
