77

C          0.59898        1.06686        1.43113
C          2.12864        1.02221        1.39119
C          2.71092       -0.33203        1.81245
C          4.24245       -0.36980        1.78983
C          4.83673       -1.70943        2.23798
C          6.36914       -1.71473        2.24829
C          6.98043       -3.03678        2.72418
C          8.51352       -3.00687        2.75995
C          9.13473       -4.31972        3.25158
C         10.66861       -4.33427        3.25270
N         11.20569       -3.32673        4.19599
C         11.98710       -3.77545        5.12319
C         12.20950       -5.25094        5.00475
C         11.33243       -5.63645        3.77189
C         13.68861       -5.70275        4.86236
C         14.65789       -5.45503        6.03548
C         14.13952       -6.00395        7.38002
C         14.98113       -5.59473        8.59272
C         16.03003       -6.04037        5.66445
C         12.49495       -2.83698        6.16140
O         11.83476       -1.60907        6.02395
C         12.27590       -0.60945        6.97878
C         11.33087        0.57615        6.92583
C         11.74177        1.67720        7.91432
C         10.71555        2.81123        8.01276
C         11.10965        3.90363        9.01368
C         10.05730        5.00702        9.14586
H          0.21790        2.05141        1.12752
H          0.21912        0.86185        2.44316
H          0.15863        0.31834        0.75577
H          2.53707        1.80989        2.04714
H          2.47863        1.26646        0.37386
H          2.31358       -1.12254        1.15163
H          2.35455       -0.58117        2.82775
H          4.63375        0.43430        2.43821
H          4.59884       -0.13498        0.77138
H          4.47055       -2.51465        1.57757
H          4.46446       -1.95413        3.24833
H          6.72812       -0.89533        2.89642
H          6.74253       -1.48382        1.23527
H          6.64759       -3.85797        2.06668
H          6.59718       -3.27795        3.73080
H          8.82447       -2.16720        3.40891
H          8.89963       -2.77375        1.75240
H          8.81243       -5.14812        2.60057
H          8.77443       -4.56343        4.26563
H         11.03265       -4.06007        2.24954
H         10.94048       -2.33612        4.19231
H         11.80681       -5.70304        5.92742
H         10.56677       -6.37014        4.05087
H         11.95299       -6.09108        2.99069
H         14.10223       -5.24669        3.94778
H         13.64389       -6.78681        4.66627
H         14.80184       -4.36467        6.15099
H         14.08183       -7.10426        7.31731
H         13.10425       -5.66316        7.55407
H         16.00703       -5.98006        8.53506
H         14.54109       -5.97904        9.52173
H         15.04336       -4.49947        8.68371
H         15.98179       -7.13733        5.59003
H         16.79146       -5.78914        6.41247
H         16.38117       -5.65363        4.69761
H         13.59548       -2.74776        6.03451
H         12.34478       -3.29655        7.16068
H         13.31252       -0.31520        6.73309
H         12.27692       -1.06148        7.98730
H         10.31235        0.22599        7.15929
H         11.30505        0.97852        5.90027
H         12.72245        2.08963        7.62211
H         11.88330        1.23509        8.91611
H          9.73727        2.38903        8.30239
H         10.56781        3.26295        7.01626
H         12.07400        4.34493        8.71086
H         11.28487        3.44252       10.00054
H          9.88627        5.51589        8.18577
H         10.36516        5.76885        9.87431
H          9.09178        4.59954        9.48080
