45

C          0.91510        0.12714        0.01745
C          2.44332        0.09619       -0.05740
C          2.97740       -1.14607       -0.77711
C          4.50630       -1.21753       -0.84381
C          5.00441       -2.47844       -1.55845
C          6.53378       -2.61546       -1.56753
C          6.95901       -3.89587       -2.25875
O          8.40816       -4.04388       -2.14966
C          8.86898       -5.23102       -2.72888
P         10.68975       -5.17047       -2.50905
C         11.17514       -4.90876       -0.75976
O         12.55292       -4.68204       -0.80568
C         13.13922       -4.46989        0.51107
C         14.63747       -4.29455        0.34880
C         15.32703       -4.10086        1.70322
C         11.43335       -6.56736       -3.18729
C         11.95384       -7.54603       -3.67927
H          0.55544        1.02500        0.53740
H          0.52596       -0.74876        0.55743
H          0.46701        0.12209       -0.98714
H          2.86434        0.13460        0.96138
H          2.80823        1.00071       -0.57204
H          2.56513       -1.17780       -1.80091
H          2.59585       -2.04945       -0.26926
H          4.91900       -1.19002        0.17964
H          4.89820       -0.32260       -1.35684
H          4.62641       -2.48153       -2.59504
H          4.56515       -3.36475       -1.06901
H          6.91312       -2.62281       -0.53319
H          6.99250       -1.75269       -2.07554
H          6.69003       -3.88579       -3.33010
H          6.48680       -4.77685       -1.78827
H          8.67250       -5.31252       -3.81782
H          8.48873       -6.15238       -2.24225
H         11.17253       -4.04955       -3.22187
H         10.88218       -5.80868       -0.18114
H         10.57884       -4.04639       -0.39802
H         12.90591       -5.34485        1.14471
H         12.67474       -3.57589        0.96494
H         14.82831       -3.42961       -0.30409
H         15.04447       -5.18025       -0.16198
H         14.95533       -3.20649        2.22279
H         16.40867       -3.97933        1.56787
H         15.17023       -4.96563        2.36335
H         12.41927       -8.40937       -4.11848
