43

N          2.36482        4.16231       -1.73911
C          1.80371        2.79419       -1.86559
C          2.21234        2.10478       -3.17333
C          3.71305        2.12487       -3.51408
C          4.61114        1.67574       -2.35778
C          6.10258        1.58637       -2.68159
N          6.67197        2.70698       -3.47917
N          7.42994        2.44823       -4.52143
N          7.90003        3.58563       -4.99730
C          7.42059        4.57760       -4.23177
N          6.63091        4.04897       -3.26675
C          5.85936        4.75005       -2.22550
C          6.61649        4.82984       -0.88126
C          5.68749        5.46469        0.18235
N          4.76139        4.42156        0.63536
O          7.01436        3.54472       -0.45090
C          7.69767        6.02186       -4.46590
C          6.68307        6.66675       -5.41610
F          5.40650        6.62455       -4.82832
H          1.85482        4.65717       -1.00332
H          2.15902        4.69350       -2.59009
H          0.70166        2.78600       -1.81195
H          2.15946        2.21130       -1.00117
H          1.66387        2.56304       -4.01204
H          1.86023        1.06285       -3.11933
H          3.99374        3.14298       -3.83209
H          3.88372        1.48449       -4.39374
H          4.33168        0.65938       -2.03691
H          4.45879        2.31396       -1.47772
H          6.32804        0.73063       -3.33009
H          6.71063        1.52294       -1.77086
H          4.88624        4.25052       -2.11711
H          5.66116        5.74781       -2.63531
H          7.52092        5.44601       -1.01323
H          5.19730        6.36983       -0.21629
H          6.31199        5.77380        1.03036
H          3.92689        4.37279        0.04349
H          4.47242        4.55872        1.60105
H          6.27711        3.28823        0.16274
H          8.69337        6.08392       -4.92850
H          7.73550        6.57787       -3.51915
H          6.62676        6.13079       -6.37432
H          6.94163        7.72013       -5.59009
