35

C          0.96527       -3.72173        3.53237
C          0.35057       -3.63244        2.35006
S          0.93395       -2.42395        1.17943
C          1.13055       -3.44251       -0.31493
C          1.58037       -2.62915       -1.52727
C          1.08082       -3.28767       -2.85006
N         -0.34952       -3.45393       -2.99807
C         -1.19150       -2.25765       -2.90049
C         -2.65562       -2.62372       -2.88665
C         -3.36566       -2.75268       -4.09026
C         -4.71705       -3.09551       -4.11610
C         -5.39354       -3.31894       -2.91464
C         -4.71322       -3.20261       -1.70256
C         -3.35874       -2.86313       -1.69569
O         -2.68134       -2.76557       -0.46823
N         -0.30921       -1.45230        0.70747
H          0.64290       -4.45434        4.27385
H          1.80738       -3.08012        3.79970
H         -0.49310       -4.25169        2.03585
H          0.14360       -3.90723       -0.48164
H          1.84559       -4.22370       -0.01845
H          2.67559       -2.54544       -1.54794
H          1.17795       -1.60818       -1.46811
H          1.55022       -4.27546       -2.97097
H          1.45466       -2.66097       -3.67611
H         -0.73531       -4.24492       -2.48796
H         -0.98671       -1.62559       -3.78054
H         -0.96506       -1.63201       -2.01439
H         -2.83213       -2.57215       -5.02526
H         -5.24203       -3.18270       -5.06683
H         -6.45136       -3.58229       -2.91431
H         -5.23801       -3.37535       -0.75831
H         -3.34420       -2.93299        0.22303
H         -0.43731       -0.63325        1.29768
H         -1.17167       -1.88822        0.33837
