50

C          3.81421        5.69131       -1.75282
C          2.92805        6.00110       -0.56214
O          3.02134        4.94784        0.45568
P          1.98057        3.72047        0.42773
O          1.73800        3.04847       -0.86769
C          2.74538        2.62271        1.69385
C          3.98084        3.15482        2.43502
C          3.67455        4.29794        3.34275
N          2.46618        4.61992        3.74655
N          2.61394        5.71056        4.54990
C          3.88203        6.05849        4.67496
N          4.59419        5.18357        3.92196
C          6.05793        5.26798        3.76023
C          6.49291        6.16908        2.56515
F          6.00763        5.64133        1.41219
F          5.94693        7.40295        2.75061
F          6.55974        5.79563        4.89880
F          6.54245        4.02260        3.59444
C          1.43701        6.34279        5.16720
C          0.69519        5.40067        6.12155
C          1.54405        4.75193        7.23608
C          2.35612        5.75660        8.04576
O          3.19993        6.47212        7.53934
O          2.11654        5.84630        9.37130
O          0.66407        4.34992        1.11037
C         -0.66735        4.02754        0.58702
C         -1.16314        5.12123       -0.33762
H          3.77629        6.52780       -2.46520
H          3.47763        4.78270       -2.26692
H          4.85869        5.55773       -1.44074
H          1.87513        6.12263       -0.85754
H          3.24389        6.91626       -0.04321
H          3.04426        1.72477        1.13670
H          1.95599        2.32187        2.39540
H          4.74997        3.46538        1.71660
H          4.42583        2.34779        3.04071
H          4.27734        6.85549        5.29471
H          7.59104        6.24530        2.51807
H          0.77655        6.64113        4.34205
H          1.80539        7.24008        5.67574
H          0.22169        4.59745        5.54046
H         -0.12103        5.99232        6.56191
H          2.26931        4.05084        6.79410
H          0.88074        4.14785        7.87071
H          1.42795        5.21612        9.64773
H         -1.30162        3.92924        1.47850
H         -0.62364        3.06007        0.06857
H         -1.15273        6.09990        0.16106
H         -2.19639        4.90489       -0.64423
H         -0.54805        5.17312       -1.24585
