98

C          7.97916        5.76506       -0.49464
C          7.65305        4.27687       -0.64096
C          8.56778        3.54350       -1.62908
C          8.22973        2.05705       -1.77660
C          9.12483        1.30471       -2.76713
C          8.76582       -0.17992       -2.88368
C          9.64929       -0.96792       -3.85681
C          9.31460       -2.46287       -3.87869
C         10.22206       -3.29557       -4.79263
C         10.01286       -4.80304       -4.59265
C         10.87773       -5.71188       -5.46306
N         12.35501       -5.36827       -5.41868
C         12.96572       -5.50298       -4.04131
C         14.13904       -4.52805       -3.83327
C         14.61734       -4.51310       -2.35487
N         15.56881       -5.61194       -2.16062
O         15.23802       -4.83504       -4.66887
C         13.14597       -6.08619       -6.49527
C         12.86684       -5.43021       -7.84363
O         12.92066       -4.02820       -7.60413
C         12.81132       -3.21402       -8.78554
C         11.35683       -2.98882       -9.21715
O         11.40949       -2.75293      -10.61190
C         10.23160       -2.50244      -11.29079
C          8.98148       -2.33082      -10.68838
C          7.86697       -2.06950      -11.49103
C          7.95160       -1.97580      -12.88778
C          9.21929       -2.17510      -13.45872
C         10.34550       -2.42710      -12.68118
C          6.70100       -1.67475      -13.72977
C          6.03831       -0.32190      -13.30862
C          6.69191        1.07926      -13.51553
C          6.72095        1.51191      -14.99655
C          5.78350        2.07443      -12.75950
C          8.11372        1.18445      -12.93227
C          6.99517       -1.73232      -15.23953
C          5.65235       -2.78066      -13.43983
H          7.30482        6.25506        0.22090
H          7.88254        6.29237       -1.45543
H          9.00861        5.91679       -0.13729
H          6.60496        4.15937       -0.96459
H          7.71944        3.78605        0.34508
H          9.61794        3.65192       -1.30436
H          8.50595        4.03421       -2.61665
H          7.17616        1.95380       -2.09065
H          8.29612        1.56999       -0.78745
H         10.18026        1.40393       -2.45674
H          9.05604        1.78086       -3.76086
H          7.71007       -0.27695       -3.19110
H          8.83023       -0.64509       -1.88387
H         10.70960       -0.83802       -3.57369
H          9.55285       -0.54675       -4.87256
H          8.26322       -2.60748       -4.17912
H          9.38973       -2.85820       -2.85027
H         11.26960       -3.01749       -4.57007
H         10.05559       -3.02472       -5.84963
H          8.96857       -5.06546       -4.82528
H         10.13758       -5.05514       -3.52757
H         10.58595       -5.62507       -6.51766
H         10.78958       -6.76709       -5.16909
H         12.43094       -4.37262       -5.71010
H         13.27356       -6.55067       -3.91942
H         12.17201       -5.28149       -3.31810
H         13.78496       -3.51394       -4.09547
H         13.76049       -4.52920       -1.66041
H         15.14632       -3.56477       -2.19663
H         16.33784       -5.34664       -1.54962
H         15.13891       -6.44670       -1.76568
H         15.82450       -5.37047       -4.07337
H         12.87405       -7.14918       -6.48109
H         14.19914       -5.95844       -6.22012
H         11.89195       -5.73292       -8.26786
H         13.64966       -5.74468       -8.55530
H         13.35899       -3.68359       -9.61863
H         13.30721       -2.26723       -8.53858
H         10.91238       -2.13461       -8.67589
H         10.74317       -3.88494       -8.99453
H          8.85769       -2.38649       -9.60691
H          6.90666       -1.92582      -10.99361
H          9.34590       -2.12359      -14.53904
H         11.32443       -2.56884      -13.13991
H          5.80856       -0.40779      -12.23328
H          5.05582       -0.28895      -13.81058
H          5.73973        1.37545      -15.47494
H          7.46160        0.95721      -15.58480
H          6.98151        2.57781      -15.07237
H          4.75241        2.04663      -13.14247
H          6.15412        3.10357      -12.87317
H          5.74856        1.84525      -11.68378
H          8.83178        0.55179      -13.46935
H          8.14226        0.89000      -11.87311
H          8.46978        2.22320      -13.00159
H          7.79805       -1.05460      -15.55173
H          6.09548       -1.45557      -15.80541
H          7.27705       -2.75041      -15.54546
H          5.32174       -2.77040      -12.39212
H          6.07046       -3.77454      -13.65253
H          4.76273       -2.63992      -14.07041
