64

C         -0.13299       -1.54433        1.66619
C          1.33587       -1.12069        1.73841
C          1.86496       -1.06228        3.17832
C          3.34046       -0.65955        3.22637
S          3.84417       -0.57917        4.98764
C          5.49014       -0.05874        4.87892
N          6.27684        0.22633        5.88639
N          7.49985        0.58535        5.32701
C          7.37858        0.49895        4.03723
O          6.12098        0.09333        3.65822
C          8.41153        0.76189        2.97095
C          8.67491       -0.55100        2.18030
C          9.28771       -1.68220        3.00816
C          7.90524        1.83862        1.99002
N          7.85966        3.15895        2.63190
C          8.43222        3.44144        3.81036
N          8.15997        4.61552        4.41858
N          9.28655        2.58106        4.36677
C          9.67908        1.32920        3.68415
C         10.89359        1.56666        2.77051
C         12.26470        1.47981        3.48110
O         13.30188        1.76115        2.54945
C         13.63990        0.69314        1.66587
C         14.80918        1.09384        0.79918
C         15.60094        0.09657        0.21396
C         16.66390        0.43587       -0.62451
C         16.95251        1.77960       -0.87924
C         16.17109        2.77735       -0.29236
C         15.10165        2.43883        0.54095
C         12.45539        2.46431        4.63185
H         -0.48720       -1.56620        0.62739
H         -0.77877       -0.85124        2.22402
H         -0.27980       -2.54868        2.08860
H          1.46006       -0.13152        1.26645
H          1.95305       -1.82063        1.15119
H          1.73506       -2.04458        3.66086
H          1.26648       -0.34400        3.76256
H          3.49528        0.32867        2.77153
H          3.97190       -1.39494        2.70989
H          9.31385       -0.32342        1.31431
H          7.71047       -0.87914        1.76394
H         10.30712       -1.44829        3.34586
H          9.34871       -2.59622        2.40512
H          8.68509       -1.91148        3.89783
H          6.89431        1.59218        1.63814
H          8.56988        1.88276        1.11409
H          7.41411        3.91871        2.12800
H          7.29877        5.11209        4.22688
H          8.67911        4.89183        5.24283
H          9.34571        2.58735        5.38084
H          9.94205        0.63508        4.49305
H         10.82221        2.55451        2.28839
H         10.88925        0.82140        1.96438
H         12.38781        0.44608        3.86860
H         12.77693        0.43250        1.01867
H         13.89209       -0.21186        2.25137
H         15.38993       -0.95538        0.42068
H         17.27530       -0.34944       -1.07016
H         17.78768        2.04727       -1.52725
H         16.39625        3.82796       -0.48112
H         14.49992        3.21858        1.00680
H         12.26503        3.49643        4.30499
H         13.49199        2.40429        4.98429
H         11.80361        2.23273        5.48583
