49

N          1.65838        0.11151       -1.75469
C          2.55851       -0.19272       -0.64380
C          3.15819        1.10703       -0.09456
C          3.98780        0.87597        1.17118
N          4.56792        2.11544        1.72205
C          3.92433        2.83363        2.64764
N          2.65233        2.65243        3.04594
C          2.28948        3.59227        4.12231
C          3.52310        4.51885        4.19983
N          4.50063        3.84617        3.32784
C          3.23413        5.90979        3.58088
O          2.22627        6.17129        2.97438
C          4.36692        6.98549        3.69498
C          4.05372        8.16684        4.69020
C          3.62026        7.77062        6.14583
C          4.70478        7.01643        6.98079
O          4.85672        5.82529        6.85878
O          5.43030        7.77273        7.80481
F          3.27177        8.93016        6.78264
F          2.51235        6.97912        6.05839
F          5.17425        8.93503        4.79026
F          3.05806        8.90620        4.15386
F          5.54346        6.39641        4.08794
F          4.56505        7.53427        2.47170
C          5.86867        2.58403        1.25390
O          6.76560        2.56640        2.34482
C          8.10582        2.98002        1.97788
C          8.96137        2.96006        3.22669
H          1.11043       -0.70847       -2.01363
H          2.18055        0.38662       -2.58793
H          3.37915       -0.89692       -0.89223
H          1.96133       -0.67874        0.14496
H          2.33468        1.81338        0.10049
H          3.78941        1.58131       -0.86470
H          4.82879        0.19526        0.97760
H          3.38602        0.40422        1.96301
H          1.95503        2.19911        2.46677
H          2.11504        3.05474        5.06305
H          1.39331        4.16308        3.84612
H          3.91810        4.63175        5.21851
H          5.51150        3.85456        3.46598
H          5.11018        8.69704        7.80405
H          5.77244        3.60705        0.83985
H          6.19046        1.90443        0.44664
H          8.06479        3.98970        1.53035
H          8.49350        2.28347        1.21367
H          8.58406        3.66587        3.97909
H          9.98955        3.25203        2.97634
H          8.98817        1.95598        3.66871
