78

C          1.23117       -0.50059       -0.47602
C          2.72628       -0.30378       -0.21400
C          3.06184        1.05993        0.40130
C          4.55724        1.25134        0.67257
C          4.90020        2.59348        1.32984
C          6.40238        2.75185        1.59511
C          6.74542        4.03816        2.32633
O          8.17436        4.07969        2.51760
C          8.61640        5.16231        3.30715
C         10.13544        5.03100        3.33591
C         10.58760        3.62996        3.75371
N         11.95258        3.91005        4.32161
C         11.92862        5.42125        4.83212
O         10.68202        5.88087        4.35764
C         13.13620        6.16388        4.25622
C         13.20468        6.26593        2.72847
C         14.56577        6.70520        2.16250
C         14.82815        8.24493        1.93403
C         14.79641        9.27812        3.12944
C         15.78020        9.17973        4.36507
C         17.35285        9.19299        4.19545
C         18.11033       10.40522        3.51780
C         18.01653       11.87326        4.10162
C         18.45439       12.13098        5.59186
F         19.65887       11.59163        5.84142
F         18.51853       13.45727        5.78980
F         17.55611       11.61455        6.45242
F         18.83074       12.61796        3.31308
F         16.74347       12.32257        3.95726
F         19.41855       10.04634        3.52154
F         17.69298       10.48615        2.22771
F         17.85117        9.04401        5.45121
F         17.68995        8.09095        3.47611
F         15.42969       10.19131        5.19212
F         15.49966        8.00337        5.01011
F         14.94151       10.50192        2.57794
F         13.53903        9.20786        3.67382
F         16.01104        8.36927        1.29299
F         13.83483        8.66609        1.09286
F         15.59210        6.17818        2.90068
F         14.67076        6.16711        0.90337
C         11.92769        5.37076        6.37022
C         12.20568        6.71874        7.08636
O         11.50942        7.80225        6.47556
C         11.92303        6.60508        8.58122
H          1.02669       -1.48767       -0.91198
H          0.84395        0.25667       -1.17367
H          0.64828       -0.42140        0.45367
H          3.28547       -0.42342       -1.15742
H          3.09099       -1.10098        0.45578
H          2.50020        1.18127        1.34441
H          2.70390        1.86155       -0.26822
H          5.11626        1.15543       -0.27463
H          4.91658        0.43161        1.31943
H          4.34446        2.68492        2.27926
H          4.54712        3.41929        0.68886
H          6.95697        2.72556        0.64320
H          6.76438        1.90074        2.19554
H          6.24545        4.07850        3.31272
H          6.42973        4.92776        1.74993
H          8.22483        5.10787        4.34387
H          8.32422        6.14111        2.88346
H         10.54830        5.28859        2.34468
H         10.65257        2.90970        2.93297
H          9.95802        3.22812        4.55648
H         12.68197        3.80536        3.60472
H         12.18975        3.28498        5.09969
H         14.05197        5.69721        4.65111
H         13.08073        7.16797        4.68954
H         12.43083        6.94062        2.34040
H         13.04579        5.29197        2.23464
H         12.69979        4.65920        6.71023
H         10.94630        4.97902        6.68485
H         13.26927        6.97052        6.94578
H         10.57208        7.76532        6.72861
H         10.86142        6.37622        8.76550
H         12.16305        7.55318        9.07731
H         12.52371        5.81208        9.04876
