39

C          0.62869       -0.87707       -1.14530
C          2.15823       -0.92663       -1.12410
C          2.71092       -2.10351       -0.31041
C          4.24402       -2.16971       -0.31305
C          4.77269       -3.31080        0.53666
O          6.21697       -3.32971        0.44513
C          6.82947       -4.31552        1.24677
C          8.31328       -4.18354        0.98224
N          8.79643       -2.75729        1.11625
Br         8.23364       -1.83358        2.75380
C         10.29538       -2.87901        1.06327
C         10.57468       -4.09488        1.94847
C          9.32472       -5.02598        1.76428
C          9.71902       -6.26380        0.92028
O          9.59179       -6.22905       -0.29086
C         10.27676       -7.44338        1.66316
H          0.26622       -0.01468       -1.72014
H          0.21580       -0.79466       -0.12897
H          0.20437       -1.78269       -1.60299
H          2.55313        0.01615       -0.70916
H          2.54095       -0.98746       -2.15665
H          2.30233       -3.04689       -0.71180
H          2.34404       -2.03015        0.72811
H          4.65970       -1.22038        0.06385
H          4.61195       -2.29256       -1.34447
H          4.38303       -4.28383        0.18596
H          4.48155       -3.18745        1.59640
H          6.51702       -5.34087        0.96985
H          6.59991       -4.17155        2.32238
H          8.48874       -4.39197       -0.09492
H          8.37060       -2.17208        0.38363
H         10.76482       -1.94388        1.38429
H         10.53716       -3.06734        0.00573
H         10.68496       -3.79754        2.99817
H         11.51042       -4.57943        1.64313
H          8.94116       -5.34078        2.74381
H          9.46181       -7.92491        2.22819
H         11.02845       -7.13455        2.40466
H         10.70480       -8.16868        0.96396
