93

C          1.07360       -4.41491      -17.44710
C          2.59587       -4.31477      -17.31647
C          3.05223       -3.29888      -16.26255
C          4.57494       -3.20305      -16.12121
C          5.03831       -2.21050      -15.04930
C          6.56209       -2.13836      -14.90380
C          7.03972       -1.16921      -13.81710
C          8.56493       -1.11696      -13.67811
C          9.06068       -0.16032      -12.58852
C         10.58812       -0.10972      -12.47674
C         11.10651        0.86378      -11.41272
C         12.63625        0.92263      -11.34720
C         13.18840        1.93678      -10.33951
C         14.71897        2.01021      -10.35365
C         15.31473        3.06775       -9.41459
C         16.84898        3.15193       -9.46970
C         17.38332        3.71184      -10.79692
C         18.89638        3.51727      -10.96383
C         19.48472        3.84363      -12.36633
C         18.86673        2.93431      -13.44182
N         19.57623        1.59983      -13.25720
C         20.95532        1.89331      -12.64281
C         20.98538        3.42160      -12.48207
C         21.93201        3.89763      -11.37883
C         23.37922        3.53228      -11.69746
O         23.70051        2.77962      -12.60274
O         24.22316        4.13663      -10.85332
C         25.65426        3.83601      -11.01844
C         26.04546        2.59016      -10.24603
C         19.22315        5.33178      -12.70143
C         19.98008        5.88482      -13.92165
C         19.33985        7.11716      -14.56090
C         19.14758        8.37275      -13.64379
Br        20.80567        8.89429      -12.72682
F         18.68330        9.41520      -14.34775
F         18.21677        8.07847      -12.69529
Br        20.39986        7.63209      -16.13214
F         18.06956        6.78458      -14.99811
H          0.78082       -5.15346      -18.20620
H          0.63266       -3.44911      -17.73619
H          0.61033       -4.71584      -16.49543
H          3.03318       -4.04560      -18.29309
H          3.00976       -5.30619      -17.06488
H          2.61121       -3.56621      -15.28580
H          2.64362       -2.30396      -16.51401
H          5.01464       -2.92090      -17.09437
H          4.98086       -4.20340      -15.88753
H          4.59215       -2.48865      -14.07817
H          4.64443       -1.20595      -15.28455
H          7.00704       -1.84781      -15.87212
H          6.95293       -3.14809      -14.68538
H          6.59394       -1.45746      -12.84887
H          6.65734       -0.15636      -14.03493
H          9.00744       -0.82361      -14.64684
H          8.94528       -2.13289      -13.47028
H          8.63113       -0.45736      -11.61583
H          8.67613        0.85493      -12.79038
H         11.01208        0.16989      -13.45802
H         10.97137       -1.12316      -12.26213
H         10.70564        0.57973      -10.42438
H         10.71232        1.87412      -11.61973
H         13.02669        1.16820      -12.35192
H         13.03012       -0.08152      -11.10891
H         12.83908        1.68360       -9.32411
H         12.77474        2.93560      -10.56236
H         15.03741        2.20475      -11.39397
H         15.13424        1.02045      -10.09010
H         15.01018        2.84286       -8.38045
H         14.88278        4.05648       -9.64657
H         17.26734        2.14210       -9.30546
H         17.22042        3.77206       -8.63859
H         17.12423        4.77933      -10.86861
H         16.84560        3.21814      -11.62315
H         19.14115        2.47515      -10.68275
H         19.42420        4.13783      -10.22340
H         19.09591        3.27936      -14.45751
H         17.78652        2.77688      -13.35455
H         19.66336        1.09467      -14.14540
H         19.03043        1.00004      -12.62870
H         21.73440        1.51659      -13.31012
H         21.01095        1.35369      -11.69001
H         21.37137        3.82630      -13.43088
H         21.68295        3.45824      -10.39985
H         21.86535        4.98735      -11.24581
H         26.14839        4.73321      -10.62843
H         25.86110        3.73703      -12.09143
H         25.78882        2.68555       -9.18292
H         27.13232        2.44618      -10.32014
H         25.56039        1.69495      -10.65561
H         19.47460        5.92791      -11.81260
H         18.14255        5.46155      -12.85045
H         20.02027        5.15260      -14.74210
H         21.01904        6.13382      -13.67258
