102

C          0.64895       -0.01321        0.31585
C          2.17723       -0.00414        0.22626
C          2.75438       -1.24727       -0.45969
C          4.28349       -1.24633       -0.55221
C          4.86198       -2.49087       -1.23296
C          6.39155       -2.48651       -1.32173
C          6.97501       -3.73533       -1.99023
C          8.50584       -3.73847       -2.05394
C          9.09441       -5.00227       -2.68898
C         10.62634       -5.01490       -2.72823
C         11.21201       -6.30215       -3.31747
C         12.74375       -6.32228       -3.36492
C         13.31539       -7.63464       -3.91148
C         14.84559       -7.66598       -3.98361
C         15.40009       -8.99568       -4.50425
C         16.92545       -9.02403       -4.63654
C         17.46512      -10.32385       -5.24524
C         18.93267      -10.23420       -5.68856
C         19.38822      -11.33851       -6.65310
C         18.73470      -11.31377       -8.04412
N         19.00559      -10.08145       -8.80584
C         20.12874       -9.81078       -9.59819
C         21.18473      -10.80187       -9.94042
C         20.76304      -11.74190      -11.09305
C         21.85071      -12.75907      -11.44960
C         21.45090      -13.67924      -12.60915
C         22.53567      -14.69610      -12.97189
N         20.07960       -8.59220      -10.07284
N         18.91651       -8.06551       -9.56982
C         18.24076       -8.95073       -8.81621
N         17.04234       -8.77669       -8.23624
C         16.39531       -7.45639       -8.11383
C         16.21374       -6.74982       -9.44455
C         15.78362       -7.48129      -10.56319
C         15.61223       -6.86530      -11.80102
C         15.86683       -5.49763      -11.92735
C         16.27750       -4.76206      -10.81616
C         16.45717       -5.36125       -9.55821
C         16.86681       -4.50748       -8.38094
H          0.26785        0.88911        0.81375
H          0.28744       -0.88349        0.88397
H          0.19048       -0.05965       -0.68340
H          2.60526        0.08132        1.23964
H          2.50967        0.89678       -0.31708
H          2.32689       -1.33425       -1.47455
H          2.42190       -2.14965        0.08376
H          4.70946       -1.15630        0.46286
H          4.61524       -0.34501       -1.09757
H          4.43708       -2.58276       -2.24824
H          4.53163       -3.39197       -0.68654
H          6.81382       -2.38821       -0.30591
H          6.72271       -1.58821       -1.87233
H          6.56522       -3.82939       -3.01150
H          6.63237       -4.63280       -1.44541
H          8.91095       -3.62436       -1.03287
H          8.85070       -2.85152       -2.61444
H          8.70120       -5.11475       -3.71497
H          8.73841       -5.88727       -2.13246
H         11.01716       -4.87352       -1.70514
H         10.98513       -4.14717       -3.30978
H         10.81372       -6.45233       -4.33678
H         10.85667       -7.16473       -2.72667
H         13.14352       -6.14608       -2.35101
H         13.10281       -5.47848       -3.98091
H         12.89917       -7.82271       -4.91770
H         12.96558       -8.47167       -3.28266
H         15.26632       -7.46148       -2.98430
H         15.19981       -6.84274       -4.63113
H         14.94600       -9.21354       -5.49069
H         15.07005       -9.81653       -3.84524
H         17.39228       -8.85805       -3.65195
H         17.25166       -8.17027       -5.25809
H         16.81525      -10.61366       -6.09643
H         17.34305      -11.15595       -4.53350
H         19.58071      -10.26231       -4.80011
H         19.12329       -9.24639       -6.14422
H         19.17540      -12.33069       -6.22394
H         20.48046      -11.28850       -6.77875
H         17.64306      -11.43341       -7.99024
H         19.09907      -12.14961       -8.65350
H         21.46491      -11.38651       -9.05063
H         22.07384      -10.22818      -10.23522
H         20.52032      -11.12443      -11.97239
H         19.83346      -12.27416      -10.82725
H         22.09042      -13.36995      -10.56134
H         22.77996      -12.22331      -11.70928
H         21.21169      -13.06337      -13.49221
H         20.51924      -14.20937      -12.34790
H         23.46863      -14.19678      -13.27129
H         22.21849      -15.33385      -13.80743
H         22.76924      -15.35440      -12.12222
H         18.57253       -7.16159       -9.88868
H         16.76338       -9.47987       -7.55754
H         16.97062       -6.83106       -7.41482
H         15.42298       -7.64863       -7.63715
H         15.58577       -8.55016      -10.45991
H         15.27834       -7.44755      -12.65985
H         15.73982       -5.00131      -12.88963
H         16.46058       -3.69080      -10.91749
H         17.02047       -3.46884       -8.69622
H         17.80461       -4.84729       -7.91424
H         16.09775       -4.49977       -7.59404
