68

C          0.63471        0.11136        0.75927
C          2.14167        0.24558        0.52638
C          2.82787        1.09753        1.60067
C          4.32819        1.25793        1.33642
N          4.99491        2.07414        2.36829
C          5.57641        1.57073        3.46657
N          6.01757        2.58182        4.22310
C          5.69121        3.77285        3.59560
C          5.04528        3.46969        2.42199
C          4.50844        4.34606        1.33769
C          4.46616        5.83813        1.69863
C          3.84894        6.63903        0.54865
S          3.71971        8.38228        1.04131
C          3.13955        9.11965       -0.49422
S          2.94588        8.27388       -1.90426
N          2.86812       10.45183       -0.33853
C          3.18297       11.17120        0.87265
C          2.14322       11.61932        1.69626
C          2.44179       12.34765        2.84759
C          3.77183       12.62941        3.17559
C          4.80592       12.18718        2.34612
C          4.51606       11.46254        1.18891
C          2.21646       11.21756       -1.37720
C          2.90561       12.27179       -1.98115
C          2.26099       13.05388       -2.94211
C          0.93637       12.78503       -3.29388
C          0.25200       11.73094       -2.67997
C          0.88767       10.94626       -1.71855
C          6.64669        2.45058        5.54315
C          5.68505        2.68109        6.74010
C          4.78254        1.48826        7.08261
N          3.87885        1.13960        5.97441
O          6.46467        3.06729        7.86285
H          0.16958       -0.50435       -0.02071
H          0.13879        1.09261        0.74680
H          0.41804       -0.36102        1.72837
H          2.32353        0.69246       -0.46503
H          2.60549       -0.75426        0.50028
H          2.68907        0.64134        2.59495
H          2.35325        2.09112        1.64590
H          4.51747        1.73307        0.36439
H          4.83399        0.28285        1.32210
H          5.64950        0.52024        3.71527
H          5.96127        4.73220        4.02013
H          3.49146        4.01329        1.07312
H          5.11625        4.20343        0.42681
H          5.48187        6.20976        1.90660
H          3.87575        5.97625        2.61881
H          2.84476        6.26882        0.29588
H          4.45647        6.58230       -0.36560
H          1.11060       11.39890        1.42472
H          1.63340       12.69877        3.48945
H          4.00022       13.20330        4.07425
H          5.84273       12.41865        2.59274
H          5.31216       11.12314        0.52595
H          3.93887       12.47585       -1.69970
H          2.79860       13.87537       -3.41650
H          0.43575       13.39812       -4.04377
H         -0.78338       11.51984       -2.94932
H          0.36545       10.11859       -1.23885
H          7.44636        3.19911        5.60814
H          7.10825        1.45459        5.59696
H          5.05565        3.55798        6.50542
H          4.26590        1.73296        8.02828
H          5.42318        0.61139        7.28268
H          3.14402        1.84572        5.89178
H          3.39571        0.26623        6.18906
H          6.78637        2.27480        8.32430
