104

C          0.99476       -3.22960       -1.25354
C          2.47656       -2.84620       -1.24695
C          3.19148       -3.19990        0.06155
C          4.68084       -2.84160        0.06649
C          5.38989       -3.19141        1.37816
C          6.88603       -2.86066        1.38297
C          7.56548       -3.17254        2.71932
C          9.07375       -2.89861        2.73505
C          9.69369       -3.15625        4.11270
C         11.19961       -2.96163        4.14957
O         11.63430       -3.17032        5.50425
C         13.02743       -3.14123        5.68714
C         13.27783       -3.50377        7.14740
S         12.54535       -5.17220        7.48078
C         14.10411       -5.87783        7.59248
N         15.10116       -5.03714        7.54013
C         14.76784       -3.60247        7.55707
C         15.05818       -3.00036        8.94211
C         16.53182       -3.02764        9.36100
C         16.74453       -2.44936       10.76497
C         18.21175       -2.42499       11.20465
C         18.40638       -1.88331       12.62480
C         19.87323       -1.80084       13.05940
C         20.05825       -1.26340       14.48222
C         21.52430       -1.14950       14.91272
C         21.70562       -0.62077       16.33900
C         23.17120       -0.50458       16.77232
C         23.34203        0.01924       18.20025
C         14.28058       -7.36256        7.72615
C         14.81370       -8.07115        6.43895
C         16.24533       -8.63545        6.54917
P         17.56198       -7.38803        6.45922
O         17.40820       -6.25590        7.42854
O         18.86381       -8.27482        6.66078
C         20.18866       -7.64259        6.80924
C         21.12076       -8.65434        7.43494
O         17.57054       -6.78116        4.97867
C         17.91065       -7.57943        3.79687
C         16.70548       -7.71417        2.88766
H          0.51323       -2.96342       -2.20447
H          0.44565       -2.71746       -0.44910
H          0.86133       -4.31178       -1.10521
H          2.57904       -1.76394       -1.43482
H          2.98971       -3.34687       -2.08565
H          3.07592       -4.28057        0.25892
H          2.68933       -2.68668        0.90090
H          4.79829       -1.76228       -0.13500
H          5.18239       -3.36010       -0.76971
H          5.25588       -4.26711        1.58974
H          4.89732       -2.65850        2.21065
H          7.02709       -1.79251        1.14170
H          7.38720       -3.42175        0.57449
H          7.38922       -4.23093        2.98048
H          7.08239       -2.58224        3.51751
H          9.26156       -1.85355        2.43385
H          9.56835       -3.52924        1.97567
H          9.46594       -4.18368        4.44044
H          9.23832       -2.48317        4.85678
H         11.48183       -1.94228        3.82436
H         11.71293       -3.68265        3.48402
H         13.44952       -2.13262        5.49362
H         13.54388       -3.85570        5.01242
H         12.73835       -2.79721        7.79176
H         16.10257       -5.41406        7.53312
H         15.39339       -3.10360        6.79824
H         14.44012       -3.52742        9.68931
H         14.69912       -1.95812        8.92172
H         17.13074       -2.45776        8.62959
H         16.91989       -4.05959        9.33455
H         16.15526       -3.03733       11.49024
H         16.33577       -1.42483       10.80475
H         18.79477       -1.81167       10.49513
H         18.63170       -3.44454       11.13975
H         17.84904       -2.51824       13.33594
H         17.95046       -0.88021       12.69657
H         20.42697       -1.15900       12.35159
H         20.33502       -2.80136       12.98374
H         19.51889       -1.91567       15.19161
H         19.57817       -0.27201       14.56149
H         22.06084       -0.49002       14.20779
H         22.00796       -2.13878       14.82684
H         21.16934       -1.28048       17.04401
H         21.22115        0.36796       16.42626
H         23.70536        0.15760       16.06992
H         23.65478       -1.49215       16.68155
H         22.90943        1.02500       18.31062
H         24.40176        0.08221       18.48325
H         22.84175       -0.63544       18.92931
H         13.30990       -7.79218        8.00234
H         14.96233       -7.54527        8.56994
H         14.73461       -7.39468        5.57523
H         14.14238       -8.91192        6.22257
H         16.42293       -9.35974        5.73972
H         16.38287       -9.18750        7.49082
H         20.07302       -6.74634        7.43454
H         20.52384       -7.33828        5.80650
H         20.77508       -8.94326        8.43562
H         22.12215       -8.21286        7.53252
H         21.20397       -9.55641        6.81522
H         18.30206       -8.55842        4.11278
H         18.72624       -7.03387        3.30354
H         15.89850       -8.29019        3.36104
H         16.99573       -8.23916        1.96709
H         16.31510       -6.72721        2.60712
