117

C          0.62846       -1.38279       20.53490
C          2.15181       -1.53205       20.52125
C          2.69371       -2.08786       19.20015
C          4.21958       -2.21334       19.16116
C          4.75643       -2.73623       17.82548
C          6.28476       -2.80973       17.76089
C          6.81589       -3.29866       16.41037
C          8.34438       -3.32069       16.32008
C          8.86883       -3.79248       14.96095
C         10.39626       -3.78454       14.85505
C         10.91834       -4.25452       13.49445
C         12.44613       -4.26297       13.39650
C         12.97532       -4.76787       12.05099
C         14.50357       -4.82875       11.98858
C         15.05489       -5.40163       10.67962
C         16.58098       -5.52213       10.68469
C         17.16515       -6.18878        9.43401
C         18.69700       -6.29921        9.44462
C         19.24220       -7.21020       10.55281
C         20.77063       -7.18947       10.63138
C         21.39537       -7.91337       11.85334
C         21.06290       -9.42594       11.89375
C         21.42191      -10.22711       10.64464
O         22.83283      -10.12142       10.41099
C         23.28072      -10.79084        9.21937
C         24.77336      -10.54858        9.06040
C         25.36238      -11.23713        7.82306
C         26.87299      -11.01644        7.67228
C         27.45968      -11.69651        6.43280
C         21.00663       -7.26676       13.19736
C         21.58039       -5.85914       13.36232
C         21.35226       -5.27981       14.76342
C         21.85941       -3.84403       14.95446
C         21.52749       -3.27144       16.33810
C         22.05150       -1.84758       16.55226
C         21.71189       -1.27409       17.93324
C         22.25216        0.14154       18.15058
N         23.02625       -5.91335       13.07079
C         23.60153       -6.86185       12.31832
N         24.94820       -6.87115       12.16897
N         22.87188       -7.80735       11.74037
H          0.26967       -0.97982       21.49217
H          0.13061       -2.35109       20.37477
H          0.28759       -0.70271       19.73974
H          2.46719       -2.18962       21.34925
H          2.61995       -0.55272       20.72000
H          2.36222       -1.43784       18.37078
H          2.23915       -3.07580       19.00620
H          4.55529       -2.87732       19.97739
H          4.67016       -1.22697       19.37154
H          4.39150       -2.08728       17.00971
H          4.33234       -3.73618       17.62570
H          6.65621       -3.47137       18.56337
H          6.70486       -1.81110       17.97608
H          6.41564       -2.65330       15.60851
H          6.42227       -4.31005       16.20601
H          8.75047       -3.97072       17.11531
H          8.73515       -2.30914       16.52976
H          8.44558       -3.15355       14.16592
H          8.49437       -4.81147       14.75836
H         10.82070       -4.42474       15.64885
H         10.77076       -2.76560       15.05823
H         10.50315       -3.61002       12.69995
H         10.53582       -5.26984       13.28863
H         12.85686       -4.89336       14.20548
H         12.83132       -3.24498       13.58385
H         12.59696       -4.12316       11.23882
H         12.56443       -5.77377       11.85397
H         14.87155       -5.44294       12.83054
H         14.91846       -3.81798       12.15064
H         14.73294       -4.77434        9.83082
H         14.61277       -6.39812       10.50463
H         16.87280       -6.08957       11.58560
H         17.02816       -4.51842       10.80266
H         16.85866       -5.61809        8.54292
H         16.72494       -7.19404        9.31316
H         19.13030       -5.29019        9.56432
H         19.04831       -6.66626        8.46629
H         18.87576       -8.23702       10.38841
H         18.81939       -6.88887       11.51680
H         21.11487       -6.14242       10.64205
H         21.20327       -7.62130        9.71485
H         19.98380       -9.54157       12.07027
H         21.57281       -9.86842       12.76357
H         20.87076       -9.86469        9.75715
H         21.14518      -11.28582       10.79465
H         22.71930      -10.40297        8.34854
H         23.06207      -11.87072        9.30823
H         25.28828      -10.90648        9.96757
H         24.95233       -9.46016        8.99441
H         24.84781      -10.87237        6.91737
H         25.15765      -12.32021        7.87460
H         27.38447      -11.38982        8.57573
H         27.07941       -9.93293        7.63116
H         27.29594      -12.78381        6.45779
H         28.54196      -11.52625        6.35859
H         26.99926      -11.31311        5.51026
H         21.37117       -7.90455       14.01836
H         19.91466       -7.21745       13.28690
H         21.11092       -5.18084       12.62767
H         21.81038       -5.95003       15.51029
H         20.26666       -5.30316       14.94848
H         21.42924       -3.19430       14.17297
H         22.95737       -3.79257       14.82181
H         21.94194       -3.93581       17.11593
H         20.43314       -3.28617       16.47884
H         21.64112       -1.18398       15.77090
H         23.14749       -1.83568       16.41377
H         22.11151       -1.94520       18.71211
H         20.61698       -1.27603       18.06589
H         23.34861        0.16970       18.06521
H         21.98795        0.52196       19.14615
H         21.84457        0.84415       17.40868
H         23.61392       -5.19904       13.48795
H         25.51506       -6.10379       12.50352
H         25.38091       -7.51717       11.52192
H         23.30153       -8.55574       11.17589
