86

C          0.96982        1.47468       -2.43193
C          2.47074        1.32052       -2.17308
C          3.09036        0.11138       -2.88274
C          4.59134       -0.05276       -2.62375
C          5.20652       -1.27299       -3.31636
C          6.70588       -1.44124       -3.04998
C          7.31131       -2.68414       -3.70982
C          8.81066       -2.85448       -3.44430
C          9.40050       -4.12658       -4.06128
C         10.90276       -4.29435       -3.81059
C         11.47548       -5.59257       -4.38810
C         12.98325       -5.75324       -4.16780
C         13.53611       -7.08100       -4.69436
C         15.05230       -7.23005       -4.52748
C         15.56498       -8.61733       -4.93392
C         17.09364       -8.77524       -4.94670
C         17.81809       -8.45971       -3.62616
C         17.31748       -9.20359       -2.38476
S         17.21421      -11.02081       -2.62531
C         18.95964      -11.48690       -2.84626
C         19.15125      -12.99580       -3.08500
O         18.18824      -13.57271       -3.99335
C         18.07591      -13.08487       -5.27127
O         18.66398      -12.10022       -5.67408
C         17.13486      -13.93645       -6.08338
S         18.01234      -15.42243       -6.70044
C         20.60297      -13.28778       -3.50603
O         21.48620      -12.81699       -2.46933
C         21.74380      -13.70804       -1.45056
O         21.22421      -14.79949       -1.37395
C         22.74913      -13.14038       -0.47991
S         24.45825      -13.38066       -1.09270
C         16.81738      -11.56574       -0.89592
C         16.67469      -12.99870       -0.81383
C         16.56247      -14.19962       -0.73925
H          0.55693        2.34801       -1.90841
H          0.41274        0.58920       -2.09063
H          0.76021        1.60115       -3.50470
H          2.65057        1.23386       -1.08792
H          2.99619        2.23660       -2.49243
H          2.91380        0.19710       -3.96971
H          2.56296       -0.80574       -2.56497
H          4.76682       -0.12619       -1.53575
H          5.12043        0.85932       -2.95218
H          5.03478       -1.20136       -4.40490
H          4.67457       -2.18355       -2.98801
H          6.87872       -1.48838       -1.96013
H          7.24265       -0.54205       -3.40054
H          7.13625       -2.64282       -4.79935
H          6.77477       -3.58142       -3.35354
H          8.98905       -2.86281       -2.35436
H          9.35301       -1.97376       -3.83102
H          9.21105       -4.12784       -5.14911
H          8.86413       -5.00567       -3.66212
H         11.09761       -4.26206       -2.72388
H         11.44346       -3.43232       -4.23914
H         11.26054       -5.63809       -5.47002
H         10.94729       -6.45313       -3.94048
H         13.20663       -5.66778       -3.08918
H         13.51462       -4.91569       -4.65247
H         13.27933       -7.19096       -5.76190
H         13.02829       -7.91484       -4.17697
H         15.31508       -7.01253       -3.47586
H         15.56672       -6.45924       -5.12701
H         15.19955       -8.85308       -5.94588
H         15.10038       -9.38202       -4.28355
H         17.52072       -8.10813       -5.71112
H         17.35470       -9.79447       -5.27886
H         17.70865       -7.39214       -3.37670
H         18.89945       -8.62283       -3.74505
H         16.27867       -8.93377       -2.14110
H         17.95037       -9.02144       -1.50469
H         19.53006      -11.16181       -1.96592
H         19.26860      -10.91246       -3.72940
H         18.96209      -13.54228       -2.15316
H         16.73132      -13.34936       -6.91453
H         16.31754      -14.32012       -5.46130
H         18.76831      -14.76700       -7.61375
H         20.88674      -12.74362       -4.41389
H         20.71554      -14.37020       -3.65132
H         22.61846      -13.61683        0.49731
H         22.63168      -12.05402       -0.38460
H         24.47223      -14.72607       -0.93783
H         15.87297      -11.04611       -0.66706
H         17.60749      -11.17606       -0.23573
H         16.46515      -15.26460       -0.66410
