47

C          4.57770        1.79958        2.03990
C          4.56209        1.80520        0.70567
C          4.43453        0.59371       -0.18188
N          4.27722       -0.67343        0.52714
C          5.14661       -1.68825        0.55962
N          4.70365       -2.95041        0.76380
C          3.43703       -3.62292        0.32915
C          3.82780       -5.14185        0.22133
C          2.62495       -6.09101        0.10830
C          4.82100       -5.41921       -0.91974
C          2.36734       -3.45232        1.42777
O          2.13737       -2.05101        1.64989
C          2.93983       -3.05694       -1.01063
N          6.47911       -1.51238        0.39038
C          7.30561       -0.42093        0.93882
C          7.61480       -0.60755        2.42757
C          8.62643        0.44120        2.93803
C          9.91947        0.34098        2.27181
C         10.97961        0.22691        1.69968
H          4.65932        2.72678        2.60503
H          4.50118        0.87510        2.61552
H          4.62814        2.75082        0.16006
H          5.29624        0.51374       -0.86228
H          3.55330        0.71718       -0.83495
H          3.35716       -0.90355        0.92652
H          5.39754       -3.58609        1.14715
H          4.33094       -5.37975        1.17897
H          2.00820       -5.87152       -0.77511
H          1.97741       -6.07392        0.99359
H          2.98665       -7.12133       -0.00301
H          4.33312       -5.35863       -1.90210
H          5.22470       -6.43472       -0.81987
H          5.67545       -4.72738       -0.93036
H          2.71348       -3.93346        2.35875
H          1.43488       -3.93634        1.10265
H          1.38095       -1.93933        2.24526
H          3.75423       -2.97322       -1.73997
H          2.47076       -2.07377       -0.89712
H          2.17897       -3.72767       -1.42863
H          6.98727       -2.36716        0.18087
H          6.80746        0.54080        0.77442
H          8.23593       -0.40826        0.35502
H          8.02779       -1.61444        2.59614
H          6.68595       -0.52835        3.01302
H          8.76216        0.31056        4.02291
H          8.21650        1.45630        2.80082
H         11.93128        0.14677        1.21666
