57

C          3.72016       -0.29048       -3.17016
C          4.10608       -0.27766       -1.70694
O          4.23553       -1.65315       -1.25472
C          4.61947       -1.74953        0.10421
N          4.90745       -3.14556        0.43388
C          3.88256       -4.03249        0.41208
N          4.03351       -5.27292        0.91622
C          2.97295       -6.27620        0.95485
O          2.49028       -6.46336       -0.35355
C          1.60448       -7.60832       -0.48117
C          1.15263       -7.71172       -1.92775
C          2.28592       -7.96508       -2.92911
C          1.80600       -7.99614       -4.38333
C          2.93844       -8.20586       -5.39408
C          2.45490       -8.19966       -6.84581
N          2.69298       -3.66171       -0.09084
C          6.29688       -3.56703        0.71550
C          6.94811       -4.42673       -0.38186
C          6.94549       -3.75814       -1.76183
C          7.57293       -4.66262       -2.82864
S          7.09676       -4.05301       -4.46632
O          5.68611       -4.30501       -4.66412
O          7.65619       -2.73628       -4.66674
Cl         8.14124       -5.37908       -5.67185
H          3.63512        0.74163       -3.53467
H          2.75097       -0.78347       -3.32306
H          4.47739       -0.80667       -3.77396
H          3.34770        0.23722       -1.09074
H          5.07454        0.23022       -1.55298
H          3.81024       -1.38024        0.76411
H          5.53194       -1.16514        0.30598
H          4.92649       -5.51909        1.32366
H          2.16286       -5.94296        1.63402
H          3.41878       -7.19746        1.36835
H          0.74338       -7.48050        0.19845
H          2.16168       -8.51164       -0.17100
H          0.60635       -6.79232       -2.19757
H          0.41460       -8.52892       -1.97838
H          2.78191       -8.92024       -2.68260
H          3.05286       -7.18071       -2.82101
H          1.28679       -7.04931       -4.61453
H          1.05212       -8.79302       -4.50693
H          3.44742       -9.16003       -5.17698
H          3.69619       -7.41576       -5.25552
H          1.72398       -9.00156       -7.02623
H          3.28775       -8.34469       -7.54685
H          1.96940       -7.24556       -7.09872
H          2.72304       -2.87229       -0.74183
H          2.05586       -4.42363       -0.32663
H          6.33701       -4.08322        1.68936
H          6.86904       -2.64117        0.85348
H          6.44358       -5.40360       -0.45453
H          7.97747       -4.63687       -0.05065
H          7.49011       -2.80259       -1.72932
H          5.90958       -3.52378       -2.04872
H          7.19538       -5.69367       -2.78747
H          8.67020       -4.67030       -2.80371
