65

C          8.26919       -3.39890       11.56952
C          8.41718       -1.90758       11.25694
C          8.90213       -1.62937        9.82933
C          9.04506       -0.13774        9.50795
C          9.46938        0.14260        8.06193
C          9.56929        1.63608        7.72931
C          9.88727        1.91444        6.25552
C          9.90246        3.40645        5.89982
C         10.10585        3.66702        4.40133
C          9.94225        5.13124        3.96175
C         10.89016        6.15166        4.62882
P         12.66149        5.82583        4.38604
C         13.08099        5.67002        2.62594
C         14.57455        5.40552        2.30424
C         15.16470        4.18110        3.04355
C         14.46340        2.83880        2.80717
C         14.73932        5.30819        0.77968
C         13.68905        7.07353        5.22039
C         13.38087        7.27908        6.71744
C         13.52662        6.02314        7.58806
C         13.37024        6.31974        9.08131
H          7.91305       -3.56100       12.59594
H          9.22793       -3.92794       11.46388
H          7.55037       -3.88052       10.88986
H          9.11746       -1.44791       11.97507
H          7.44982       -1.40101       11.41398
H          8.19904       -2.08976        9.11268
H          9.87023       -2.13538        9.66707
H          9.77394        0.31808       10.20125
H          8.08399        0.36884        9.70601
H          8.74452       -0.33035        7.37631
H         10.43824       -0.34674        7.85947
H         10.33521        2.10695        8.37114
H          8.61495        2.12700        7.98885
H          9.13771        1.40688        5.62411
H         10.85901        1.46062        5.99196
H         10.68680        3.90849        6.49622
H          8.94845        3.86359        6.21600
H          9.37049        3.07457        3.83521
H         11.08874        3.27235        4.08400
H          8.91904        5.46598        4.19254
H         10.03880        5.20553        2.86775
H         10.73563        6.19103        5.71804
H         10.71018        7.16813        4.24448
H         12.93975        4.58385        4.99365
H         12.73946        6.60174        2.14633
H         12.44249        4.86225        2.23327
H         15.14578        6.28858        2.63830
H         15.20570        4.38486        4.12857
H         16.21808        4.09635        2.73645
H         13.42020        2.82963        3.16010
H         14.98580        2.03762        3.34521
H         14.45172        2.56034        1.74528
H         14.17465        4.46415        0.35980
H         15.79673        5.16618        0.52010
H         14.39329        6.22207        0.27845
H         13.55885        8.00760        4.65108
H         14.73209        6.75184        5.07325
H         12.37361        7.70922        6.83670
H         14.07573        8.05395        7.07688
H         14.51248        5.56376        7.40220
H         12.77795        5.26478        7.29652
H         14.13292        7.03156        9.42708
H         13.47576        5.40409        9.67710
H         12.38367        6.75066        9.30509
