59

C          1.36380        2.92926        0.17080
C          2.34117        3.01828        1.34448
C          3.62681        2.21199        1.12890
C          4.62547        2.33875        2.28688
C          6.02283        1.77035        2.00609
C          6.86514        2.57993        0.98714
C          7.21218        3.94478        1.47454
N          8.18716        4.18968        2.32955
N          8.15478        5.53381        2.54343
C          7.18501        6.11040        1.84307
N          6.56295        5.13069        1.15898
C          5.43407        5.34439        0.23246
C          5.83317        5.92302       -1.13576
C          6.64778        5.04710       -2.06978
Br         8.55029        4.95716       -1.53511
Br         4.10848        6.24942       -2.04671
C          9.14582        6.13460        3.44880
C          8.57267        7.24751        4.32492
O          7.51743        6.71282        5.15215
C          6.24392        7.14373        4.89718
O          5.93927        7.84666        3.95223
C          5.27986        6.56514        5.89888
S          4.58828        4.99889        5.23311
C          9.67198        7.78527        5.25205
O          9.13692        8.67353        6.24035
C          8.74192        9.90603        5.79295
O          8.88836       10.28370        4.64961
C          8.06542       10.67861        6.89835
S          6.30693       10.17040        7.02704
H          0.45590        3.51695        0.35936
H          1.05374        1.89061       -0.01260
H          1.81765        3.30829       -0.75761
H          1.84928        2.67293        2.26865
H          2.60441        4.07636        1.52612
H          4.08744        2.52836        0.17361
H          3.37744        1.14837        0.97868
H          4.21447        1.82347        3.16865
H          4.71247        3.39616        2.59608
H          5.94147        0.74349        1.61813
H          6.59475        1.70504        2.94318
H          6.35249        2.64780        0.01848
H          7.81510        2.06178        0.80052
H          6.90265        7.15819        1.86963
H          4.73203        6.02603        0.72670
H          4.92550        4.38285        0.10583
H          6.28971        6.91546       -1.03381
H          6.66880        5.46853       -3.07756
H          6.28423        4.01438       -2.10992
H          9.98223        6.51621        2.84467
H          9.50836        5.29848        4.05952
H          8.16530        8.07218        3.72379
H          4.47620        7.27977        6.10053
H          5.78820        6.30395        6.83291
H          3.71815        5.58198        4.37501
H         10.43881        8.29620        4.65083
H         10.12854        6.97165        5.83044
H          8.13934       11.75299        6.70247
H          8.50648       10.44205        7.87379
H          5.92421       10.68523        5.83387
