45

C          0.62592        2.24314       -1.11837
O          2.02018        2.05475       -0.87179
C          2.26858        1.56921        0.43587
N          3.69343        1.45696        0.62959
C          4.23251        0.17629        1.04011
C          4.23864       -0.04454        2.56468
C          4.94911       -1.31243        3.01333
C          4.94255       -1.57975        4.52454
C          5.45105       -2.99633        4.85140
N          4.60720       -4.00092        4.20038
N          4.92971        1.17446        3.18630
C          4.38261        2.51871        2.74617
C          4.42941        2.58105        1.20893
C          3.98959        3.94219        0.64882
C          4.99809        5.06261        0.94267
C          4.69526        6.32512        0.11536
F          4.60195        6.04744       -1.20326
F          3.50751        6.87287        0.51467
F          5.64863        7.26087        0.28350
O          5.08108        5.40181        2.32546
H          0.53741        2.63088       -2.13838
H          0.18437        2.97086       -0.41356
H          0.07058        1.29174       -1.04290
H          1.80794        0.57004        0.56860
H          1.78674        2.25101        1.17396
H          5.27121        0.08410        0.66802
H          3.66063       -0.63701        0.57479
H          3.20939       -0.00874        2.95591
H          5.98551       -1.30891        2.62888
H          4.45077       -2.16642        2.52667
H          3.91451       -1.47429        4.91370
H          5.57116       -0.85931        5.07824
H          5.51605       -3.10303        5.94891
H          6.47559       -3.10647        4.46403
H          3.77890       -4.20504        4.76026
H          5.10578       -4.88193        4.08528
H          5.92898        1.12712        2.93179
H          4.89366        1.08952        4.21077
H          4.98788        3.30164        3.21964
H          3.35097        2.58280        3.11851
H          5.48903        2.43801        0.91007
H          3.00190        4.23269        1.04003
H          3.87796        3.81988       -0.43699
H          6.01165        4.74587        0.64665
H          4.35352        6.01249        2.53868
