89

C          0.78040       -0.57982        0.21910
C          2.20994       -0.21451        0.62655
C          2.79061        0.95333       -0.17874
C          4.21481        1.33616        0.23596
C          4.81593        2.46487       -0.60744
C          6.22453        2.87286       -0.16127
C          6.87211        3.90247       -1.09716
C          8.24882        4.30871       -0.61291
O          8.83912        5.19857       -1.63177
C         10.01670        5.73937       -1.34864
O         10.64482        5.54461       -0.31062
C         10.49141        6.67096       -2.46041
C         12.02477        6.67410       -2.56593
N         12.64918        6.99606       -1.27327
C         13.15982        8.22729       -1.28213
N         13.68055        8.83790       -0.21740
N         13.06890        8.80954       -2.50328
C         12.66661        7.78096       -3.49425
C         13.93736        7.28991       -4.14270
N         15.08699        7.88286       -4.04948
N         15.98229        7.14173       -4.80850
C         15.29646        6.13496       -5.29674
O         13.96620        6.16393       -4.90339
S         15.91067        4.85734       -6.28071
C         14.37709        3.97654       -6.77087
C         14.78167        2.81405       -7.68019
C         13.56614        1.99313       -8.13330
C         13.95680        0.81498       -9.02930
C         11.74286        8.35072       -4.53068
N         11.72325        8.08729       -5.80013
N         10.65500        8.79074       -6.33987
C         10.11068        9.45263       -5.34613
O         10.75194        9.21860       -4.14340
S          8.77907       10.54900       -5.45014
C          8.39121       10.84487       -3.68073
C          7.18999       11.78972       -3.60528
C          6.75273       12.03115       -2.15421
C          5.54573       12.96896       -2.03734
C          5.07419       13.16903       -0.59346
C          3.86911       14.10781       -0.46378
C          3.39296       14.27989        0.98079
H          0.39491       -1.41975        0.81275
H          0.72886       -0.87172       -0.84052
H          0.09507        0.26913        0.36058
H          2.86410       -1.09515        0.50946
H          2.23437        0.03786        1.70033
H          2.13074        1.83265       -0.07437
H          2.77938        0.69507       -1.25257
H          4.86659        0.44731        0.16704
H          4.21818        1.63066        1.30027
H          4.15282        3.34666       -0.57155
H          4.84556        2.15150       -1.66559
H          6.86491        1.97555       -0.10928
H          6.18058        3.27531        0.86525
H          6.23383        4.79693       -1.17742
H          6.95684        3.48020       -2.11115
H          8.92346        3.44817       -0.49701
H          8.22180        4.85562        0.34006
H         10.11321        7.67876       -2.22577
H         10.04249        6.36876       -3.41514
H         12.36770        5.68683       -2.90375
H         12.21644        6.52640       -0.46011
H         13.78610        8.34484        0.66096
H         14.09277        9.75935       -0.29535
H         13.83153        9.41746       -2.81307
H         13.71801        4.68633       -7.28861
H         13.87433        3.61318       -5.86451
H         15.49124        2.15854       -7.14864
H         15.31458        3.20335       -8.56293
H         12.86122        2.65062       -8.66823
H         13.02716        1.62126       -7.24562
H         14.47277        1.15750       -9.93765
H         13.07171        0.24698       -9.34443
H         14.62965        0.12023       -8.50610
H          9.27270       11.28217       -3.19309
H          8.16194        9.87809       -3.21044
H          6.34900       11.36523       -4.17740
H          7.44394       12.74906       -4.08425
H          7.59790       12.44810       -1.57919
H          6.50819       11.06315       -1.68264
H          4.71375       12.56764       -2.64148
H          5.79863       13.94693       -2.48182
H          5.90853       13.56254        0.01396
H          4.81839       12.18794       -0.15491
H          3.04113       13.72243       -1.08219
H          4.12895       15.09225       -0.88777
H          3.08623       13.31786        1.41781
H          2.53290       14.95996        1.04225
H          4.18864       14.69337        1.61809
