57

C          0.75301       -0.79100        0.21216
C          2.28136       -0.84551        0.12837
C          2.76718       -1.48297       -1.16358
O          4.20380       -1.46178       -1.17604
C          4.76535       -1.97672       -2.38018
C          6.28968       -1.82245       -2.36386
C          6.97167       -2.72292       -1.30828
C          6.82897       -2.22171        0.12856
C          7.55283       -3.03662        1.20117
C          6.93492       -4.43556        1.35201
C          7.09679       -5.10959        2.71974
C          8.41110       -5.92611        3.01710
C          9.81358       -5.20972        3.11574
C         10.01993       -4.07325        4.18493
F          9.54392       -4.43039        5.38199
F         11.33066       -3.81035        4.28797
F          9.39695       -2.93335        3.78831
F         10.71441       -6.17964        3.38555
F         10.11432       -4.67378        1.88995
F          8.22338       -6.59789        4.17692
F          8.54199       -6.83335        2.00289
F          6.91319       -4.20469        3.73626
F          6.09602       -6.03926        2.82629
N          7.38226       -0.79895        0.16750
C          6.70233        0.15313       -0.79471
C          6.80447       -0.36111       -2.23428
C          6.14130        0.68970       -3.14967
C          6.52570        0.62734       -4.62667
O          7.60156       -0.24910       -5.00817
C          6.28319       -0.50472       -5.53606
H          0.43034       -0.32770        1.15267
H          0.31046       -1.79621        0.16945
H          0.32596       -0.20136       -0.61133
H          2.68674       -1.41402        0.98117
H          2.69878        0.17269        0.19654
H          2.38796       -0.92857       -2.04343
H          2.41161       -2.52728       -1.24983
H          4.33624       -1.44644       -3.25071
H          4.50776       -3.04755       -2.50026
H          6.63650       -2.19115       -3.34057
H          8.04518       -2.82964       -1.54696
H          6.54705       -3.73519       -1.36319
H          5.76323       -2.10897        0.37675
H          7.46516       -2.50930        2.16404
H          8.62506       -3.10875        0.96638
H          7.30365       -5.13117        0.58692
H          5.84279       -4.37074        1.22635
H          8.39052       -0.83699       -0.04773
H          7.30627       -0.43736        1.12767
H          7.20110        1.12472       -0.67847
H          5.65880        0.22811       -0.46537
H          7.87437       -0.38535       -2.51070
H          6.44735        1.68393       -2.78655
H          5.04506        0.66396       -3.04686
H          6.58569        1.61501       -5.09790
H          5.80103       -1.41755       -5.17483
H          6.16918       -0.31443       -6.60677
