62

C          2.12316       -0.27146        2.28314
C          1.13451       -0.13926        1.15438
C          1.18837       -0.99374        0.04068
C          0.23102       -0.90681       -0.97140
C         -0.78399        0.05308       -0.90092
C         -0.84178        0.95025        0.18326
C          0.11540        0.82421        1.20458
C         -1.89995        2.03855        0.22752
C         -1.52048        3.41548       -0.40915
C         -0.84724        3.21633       -1.76950
N          0.60184        2.98264       -1.39281
C          0.89552        3.80887       -0.14270
C         -0.48214        4.30769        0.36767
C         -0.66032        5.83026        0.09085
C         -0.51088        6.37973       -1.33508
C         -0.49435        7.91115       -1.35150
N         -0.18591        8.40644       -2.68557
C         -0.18219        9.87836       -2.79730
C          0.94826       10.51696       -2.02644
C          0.71654       11.14162       -0.79466
C          1.74367       11.74643       -0.06710
C          3.04078       11.73739       -0.58488
C          3.30052       11.12972       -1.81377
C          2.26365       10.52189       -2.53227
O          2.47874        9.92947       -3.75026
N         -0.53409        4.02688        1.83420
N          0.65348        4.53597        2.44531
N         -1.69997        4.46154        2.51673
H          1.73626       -0.95260        3.05672
H          2.31653        0.69364        2.76993
H          3.07990       -0.68315        1.93812
H          1.97528       -1.74735       -0.02283
H          0.26491       -1.59979       -1.81274
H         -1.55257        0.08408       -1.67639
H          0.05770        1.50570        2.05554
H         -2.21739        2.19279        1.26481
H         -2.78681        1.68390       -0.31918
H         -2.45172        3.98338       -0.54574
H         -0.88577        4.10352       -2.40704
H         -1.20529        2.34733       -2.33272
H          1.24463        3.19754       -2.16225
H          0.69340        1.97738       -1.15538
H          1.57667        4.61978       -0.41696
H          1.38205        3.15873        0.58648
H          0.08531        6.34807        0.71657
H         -1.65029        6.13978        0.46235
H         -1.33913        6.03526       -1.97752
H          0.42892        6.04340       -1.80699
H          0.28933        8.27462       -0.66723
H         -1.46011        8.29468       -0.94794
H         -0.86093        8.03835       -3.35853
H         -1.13439       10.32447       -2.44307
H         -0.08289       10.11393       -3.86629
H         -0.30647       11.16250       -0.41052
H          1.53261       12.23212        0.88519
H          3.85582       12.21289       -0.03833
H          4.31258       11.13346       -2.22735
H          3.39961       10.08848       -4.01386
H          0.77533        4.01335        3.31445
H          0.52171        5.51635        2.72607
H         -2.40818        3.72808        2.50724
H         -2.10335        5.32585        2.14066
