55

C          3.38514        0.17950        1.75468
O          2.84727        0.99958        0.69966
C          3.54045        1.05536       -0.50831
C          4.69710        0.30655       -0.73859
C          5.35501        0.40021       -1.96842
C          4.86250        1.23753       -2.96627
C          3.70566        1.97900       -2.72307
C          3.01830        1.91096       -1.50422
C          1.76956        2.76117       -1.33572
C          1.82679        3.76464       -0.13947
C          0.72031        3.35587        0.84352
N          0.33725        1.94081        0.39911
C          0.44247        1.97760       -1.12881
C          0.32592        0.59899       -1.76646
C          0.29727        0.70248       -3.29544
C          0.18556       -0.66633       -3.96584
C          0.47252       -0.58278       -5.46401
O          0.96181        0.37924       -6.00484
O          0.16885       -1.69448       -6.19008
C         -1.00120        1.54127        0.93065
O         -1.98385        1.60863        0.25928
C         -1.03747        1.20015        2.44934
C         -1.94941       -0.03083        2.86380
C         -1.84371       -1.35111        2.00962
C         -0.38617       -1.76715        1.67428
O          0.31575       -1.00741        1.04060
O          0.01486       -2.96032        2.09127
F         -2.47371       -2.33948        2.71435
F         -2.50243       -1.18098        0.83503
F         -1.59952       -0.34532        4.13851
F         -3.23589        0.36860        2.83929
F          0.22267        1.00458        2.93212
F         -1.54471        2.30347        3.06645
H          4.40325        0.50112        2.01313
H          3.37730       -0.88166        1.46888
H          2.72560        0.32989        2.61444
H          5.09513       -0.35426        0.02859
H          6.25756       -0.18798       -2.13498
H          5.37027        1.31723       -3.92652
H          3.31872        2.63877       -3.50246
H          1.65535        3.32452       -2.26998
H          1.65825        4.79318       -0.47796
H          2.80853        3.72949        0.34350
H         -0.18445        3.96987        0.75125
H          1.03520        3.32378        1.89132
H          1.11085        1.30509        0.72835
H         -0.39936        2.61069       -1.44808
H         -0.59281        0.10762       -1.41442
H          1.17094       -0.03049       -1.44982
H          1.20875        1.18438       -3.67185
H         -0.54320        1.33750       -3.61687
H         -0.80676       -1.11688       -3.79816
H          0.92218       -1.36717       -3.53389
H         -0.23094       -2.37674       -5.62241
H         -0.70708       -3.41588        2.57348
