48

C          1.43820        0.92155        1.34500
C          2.93345        1.05270        1.03911
C          3.18382        1.64526       -0.33755
O          4.60610        1.73649       -0.54935
C          4.93548        2.33753       -1.78832
C          6.44048        2.34919       -1.88847
C          7.20645        3.51348       -1.78012
C          8.59416        3.44589       -1.86607
C          9.25466        2.22862       -2.03925
N          8.48008        1.09365       -2.10929
C          7.12519        1.15428       -2.04767
C          9.10175       -0.25690       -2.20545
C          9.49185       -0.85833       -0.83764
C          8.28068       -1.08355        0.07503
C         10.26136       -2.16110       -1.09976
C         10.74150        2.11217       -2.19181
C         11.55995        3.37965       -1.92852
C         13.06350        3.06191       -1.96909
N         13.39579        2.02644       -0.98168
H          1.28282        0.49964        2.34594
H          0.93297        0.26101        0.62578
H          0.93212        1.89729        1.31638
H          3.42165        0.06727        1.09564
H          3.42161        1.69157        1.79106
H          2.73662        2.65472       -0.41764
H          2.73444        1.01640       -1.13070
H          4.54690        3.37181       -1.85484
H          4.50101        1.76931       -2.63624
H          6.71451        4.47696       -1.63644
H          9.19026        4.35331       -1.80245
H          6.60566        0.20065       -2.12300
H          9.97612       -0.17856       -2.86070
H          8.36828       -0.90136       -2.70846
H         10.17697       -0.15327       -0.33741
H          7.56022       -1.78118       -0.37979
H          7.74859       -0.15318        0.31958
H          8.60510       -1.52455        1.02638
H          9.63404       -2.89929       -1.62180
H         10.57912       -2.61119       -0.15082
H         11.16179       -1.98852       -1.70541
H         10.94970        1.75425       -3.21775
H         11.14396        1.33210       -1.52543
H         11.30937        3.78845       -0.93493
H         11.34109        4.16626       -2.66657
H         13.62683        4.00320       -1.84107
H         13.32561        2.67418       -2.96593
H         13.47544        2.42880       -0.04659
H         14.29901        1.60247       -1.18982
