57

C          4.28856        1.68360       -3.74508
C          4.06729        2.50353       -2.47119
C          4.74552        1.87378       -1.26680
O          4.48259        2.70060       -0.11076
C          5.00882        2.18555        1.09648
C          6.48727        2.43510        1.23470
N          7.38861        1.48130        1.33815
N          8.56556        2.14508        1.38551
C          8.43958        3.47511        1.30763
N          7.09564        3.68700        1.21699
C          6.35154        4.96847        1.16214
C          5.79190        5.40942        2.52869
C          5.14088        6.77101        2.40436
C          3.89011        6.91230        1.78324
C          3.30845        8.17385        1.64086
C          3.96898        9.30955        2.11896
C          5.21194        9.17914        2.74287
C          5.79418        7.91646        2.88159
C          9.61957        4.42835        1.33131
C          9.68355        5.14226        2.74276
C          9.53582        4.20134        3.94744
C         10.93859        6.01179        2.89770
C         10.90767        3.64062        0.96665
O         11.12381        2.50841        1.82881
C          9.50119        5.48580        0.19846
H          3.79462        2.15918       -4.60143
H          3.87764        0.66885       -3.64736
H          5.35713        1.59125       -3.98748
H          2.99164        2.59852       -2.26035
H          4.45545        3.52532       -2.60539
H          5.83630        1.78681       -1.43366
H          4.35367        0.85746       -1.07633
H          4.85714        1.09682        1.19505
H          4.46420        2.67871        1.91565
H          9.47296        1.68044        1.53452
H          5.54059        4.82102        0.43813
H          7.02499        5.73040        0.76341
H          6.60405        5.44739        3.26874
H          5.06233        4.66790        2.88789
H          3.35897        6.03030        1.41613
H          2.33354        8.27020        1.16162
H          3.51115       10.29342        2.01238
H          5.72563       10.05995        3.12982
H          6.75914        7.81961        3.38578
H          8.81550        5.82418        2.74388
H         10.37518        3.49928        4.02077
H          8.60545        3.61563        3.92137
H          9.51327        4.79499        4.87096
H         11.84564        5.40109        3.00810
H         10.84744        6.61348        3.81156
H         11.08518        6.71007        2.06356
H         11.75171        4.34113        1.04003
H         10.83145        3.30933       -0.08433
H         11.99935        2.13495        1.63891
H          8.87845        6.33804        0.49239
H          9.09971        5.05248       -0.72671
H         10.49551        5.88756       -0.03390
