41

Br         5.91844        1.90772       -0.09414
C          5.46501        0.32809       -1.18225
C          5.73806       -0.96477       -0.43013
C          4.83094       -1.14760        0.80966
C          5.26553       -2.28069        1.66629
N          4.97787       -3.57400        1.47053
C          5.59495       -4.36484        2.41417
C          6.29086       -3.50849        3.23039
N          6.07854       -2.22385        2.74903
C          6.61734       -0.99844        3.34742
C          5.43987       -5.85900        2.41040
C          4.63029       -6.40796        1.21565
O          4.16605       -5.64327        0.33655
N          4.43833       -7.73970        1.13993
C          4.92386       -8.70913        2.13400
C          3.86400       -9.13943        3.15060
C          3.65840       -8.25718       -0.00928
C          2.14342       -8.09989        0.13509
H          6.08603        0.40915       -2.07930
H          4.41050        0.45133       -1.45396
H          6.79637       -0.99638       -0.13053
H          5.58155       -1.80579       -1.12598
H          3.79130       -1.32038        0.49567
H          4.83295       -0.21932        1.39918
H          4.44960       -4.11712        0.72669
H          6.90858       -3.69489        4.10056
H          7.45637       -1.26724        3.99631
H          5.84579       -0.49467        3.94344
H          6.97528       -0.32107        2.56400
H          4.95805       -6.17885        3.34745
H          6.43949       -6.32002        2.41157
H          5.79701       -8.28951        2.64782
H          5.29247       -9.58112        1.57439
H          3.45162       -8.27691        3.69214
H          4.30984       -9.82361        3.88460
H          3.03090       -9.66552        2.66856
H          3.93257       -9.31512       -0.11558
H          4.00627       -7.72701       -0.90544
H          1.75533       -8.63723        1.00913
H          1.65047       -8.50858       -0.75707
H          1.86278       -7.04306        0.21869
