75

C          0.14782       -1.78605        0.04619
C          1.66526       -1.61469        0.15105
C          2.07913       -0.35766        0.92397
C          3.59537       -0.15841        1.01123
C          4.00209        1.11563        1.75850
C          5.51492        1.35183        1.78469
C          5.91881        2.64699        2.49734
C          7.42954        2.90342        2.45248
C          7.82135        4.20930        3.11929
O          9.24472        4.38649        2.96926
C          9.70014        5.62106        3.45924
C         11.17683        5.73156        3.16160
C         11.87641        4.58601        2.74932
C         13.24743        4.60426        2.46499
C         14.00247        3.36891        2.07990
C         14.44664        2.55487        3.31943
C         15.20919        1.28332        2.93732
C         15.64857        0.45858        4.15166
C         16.41462       -0.81440        3.77236
C         16.84828       -1.64075        4.98507
C         13.90159        5.83248        2.60148
N         13.22076        6.93361        2.95249
C         11.89110        6.94134        3.23846
C         11.21114        8.22151        3.62096
O         10.26506        8.22395        4.37554
C         11.59394        9.58106        2.92040
C         12.19517       10.69653        3.85630
C         13.50324       10.32903        4.64339
C         14.76799       10.11809        3.75432
O         14.95539        9.06161        3.18228
O         15.60885       11.13321        3.66670
F         13.74190       11.33890        5.52848
F         13.27838        9.17878        5.34316
F         12.48267       11.77993        3.08264
F         11.25745       11.03504        4.76440
F         12.45811        9.37419        1.87806
F         10.44358       10.08118        2.41109
H         -0.11856       -2.69101       -0.51667
H         -0.31574       -0.92891       -0.46462
H         -0.31572       -1.86556        1.04093
H          2.10245       -1.57637       -0.86115
H          2.10572       -2.50220        0.63601
H          1.65436       -0.39859        1.94274
H          1.62451        0.52771        0.44470
H          4.01682       -0.13048       -0.00935
H          4.05430       -1.03460        1.50207
H          3.61773        1.07404        2.79264
H          3.50867        1.98448        1.28832
H          5.89618        1.37533        0.74862
H          6.01394        0.49538        2.27113
H          5.57647        2.61241        3.54579
H          5.38924        3.49613        2.03149
H          7.77062        2.93026        1.40484
H          7.96808        2.07505        2.94088
H          7.56463        4.20729        4.19524
H          7.30016        5.06493        2.64956
H          9.54273        5.71605        4.55270
H          9.15115        6.46690        2.99909
H         11.30580        3.66213        2.64941
H         14.88643        3.64118        1.48356
H         13.36353        2.74082        1.44105
H         13.55622        2.29617        3.91673
H         15.07520        3.19199        3.96439
H         16.09470        1.55456        2.33692
H         14.57528        0.66262        2.28094
H         14.76153        0.18626        4.75013
H         16.27929        1.08126        4.81018
H         17.30082       -0.53906        3.17619
H         15.78487       -1.43186        3.11002
H         17.50853       -1.06321        5.64865
H         17.39414       -2.54261        4.67811
H         15.98150       -1.96453        5.57997
H         14.96794        5.97026        2.42394
H         13.78399        7.81331        3.03595
H         15.32419       11.87918        4.23406
