82

C         -0.09140        3.49198       -1.19872
C          1.39828        3.84341       -1.23720
C          2.07257        3.78820        0.13812
C          3.55437        4.17652        0.11307
C          4.24873        4.05063        1.47321
C          5.70767        4.51724        1.45949
C          6.44838        4.27785        2.77918
C          7.87184        4.84576        2.78873
C          8.68195        4.46180        4.03142
C         10.04845        5.15148        4.10029
C         10.93135        4.65069        5.24897
C         12.23996        5.43967        5.37732
C         13.20203        4.80253        6.38617
N         14.42133        5.60341        6.63304
C         15.41965        5.57897        5.74608
N         16.59844        6.25080        5.76436
N         17.37361        5.99414        4.65166
C         16.66370        5.14223        3.95958
N         15.47012        4.85089        4.60191
C         17.01252        4.51372        2.65327
C         15.78962        4.39768        1.73124
C         16.09531        3.63557        0.42478
N         14.81836        3.15266       -0.10483
C         14.90527        1.98685       -0.99781
C         13.52128        1.62228       -1.50574
O         13.01923        2.76838       -2.20443
O         14.75310        3.67546        2.41408
C         14.44960        6.49550        7.80321
C         14.73349        5.76418        9.12159
C         16.12553        5.12976        9.18615
S         16.21376        3.99365       10.59064
O         16.13888        4.74779       11.82279
O         15.32196        2.89747       10.30804
O         17.72914        3.43934       10.42315
H         -0.54175        3.53492       -2.19990
H         -0.64868        4.18759       -0.55357
H         -0.25311        2.47712       -0.80510
H          1.52682        4.85283       -1.66399
H          1.92229        3.15737       -1.92449
H          1.96713        2.76995        0.55344
H          1.53360        4.45331        0.83586
H          3.65223        5.21361       -0.25413
H          4.08481        3.54610       -0.62282
H          4.20286        2.99914        1.80775
H          3.68856        4.63075        2.22747
H          5.74317        5.59174        1.20669
H          6.24830        4.00005        0.64647
H          6.48311        3.19335        2.98389
H          5.87532        4.72274        3.61123
H          7.82280        5.94576        2.70585
H          8.41025        4.50095        1.88802
H          8.81961        3.36658        4.04964
H          8.10554        4.70848        4.93993
H          9.90047        6.24083        4.19836
H         10.58475        5.00392        3.14617
H         11.15509        3.58062        5.09429
H         10.37540        4.70917        6.20020
H         12.02320        6.47476        5.68799
H         12.72308        5.51096        4.38830
H         13.50320        3.79062        6.07247
H         12.71105        4.67779        7.36104
H         16.94870        6.88559        6.47090
H         14.75576        4.28207        4.11751
H         17.41223        3.50286        2.84140
H         17.80751        5.10665        2.18186
H         15.42484        5.41588        1.48824
H         16.71389        2.75511        0.66140
H         16.66940        4.27065       -0.27335
H         14.32499        3.89388       -0.60966
H         15.32187        1.13807       -0.43481
H         15.56837        2.17910       -1.86244
H         12.86497        1.36217       -0.65533
H         13.59807        0.74586       -2.17163
H         12.14412        2.56137       -2.56452
H         14.30155        3.21025        1.64546
H         13.46767        6.98752        7.86221
H         15.17638        7.30192        7.62615
H         13.97071        4.98499        9.27177
H         14.61006        6.48196        9.94533
H         16.92432        5.87254        9.32103
H         16.34855        4.50715        8.30803
H         18.24349        3.75957       11.18992
