73

C          0.88058        0.29087       -0.62551
C          2.20676        0.78930       -1.20637
C          2.98237        1.67925       -0.22357
C          4.29924        2.15312       -0.80951
O          4.94163        3.05856        0.16658
C          6.24933        2.92497        0.37466
O          7.02405        2.16558       -0.16369
C          6.66565        3.91746        1.48279
N          8.11289        3.82902        1.74086
C          8.94539        4.78727        1.25835
C         10.32808        4.70388        1.43772
C         11.21312        5.80990        0.90760
C         12.69187        5.71112        1.28861
C         13.49883        6.94543        0.87402
N         14.87397        6.81492        1.33646
C         15.67584        8.04055        1.16461
C         17.09857        7.84005        1.62551
C         17.55590        8.36437        2.83953
C         18.87549        8.19284        3.26389
C         19.76758        7.47919        2.46091
C         19.33720        6.93790        1.24856
C         18.01229        7.11428        0.83829
O         17.53861        6.58168       -0.34301
C         10.82262        3.58899        2.12094
C          9.95145        2.59607        2.60712
C          8.57874        2.74537        2.39292
C         10.40510        1.43081        3.32579
N          9.67620        0.45029        3.79574
N         10.52510       -0.42782        4.41715
C         11.74093        0.07581        4.28710
O         11.74253        1.26548        3.59779
S         13.18900       -0.63178        4.88686
C         14.44843        0.63132        4.45696
C         15.80639        0.13705        4.96093
C         16.92332        1.14707        4.65954
C         18.29483        0.66472        5.13868
H          0.35036       -0.34716       -1.34428
H          0.21527        1.12819       -0.36964
H          1.04051       -0.29959        0.28820
H          2.01586        1.35018       -2.13612
H          2.83169       -0.07296       -1.49176
H          3.18091        1.12209        0.70638
H          2.37048        2.55304        0.05192
H          4.15823        2.74754       -1.72342
H          4.99467        1.33108       -1.02082
H          6.12045        3.68846        2.40753
H          6.41384        4.94273        1.18899
H          8.46852        5.61568        0.73745
H         10.80281        6.76972        1.26586
H         11.10539        5.84014       -0.19062
H         13.14085        4.81547        0.82528
H         12.80416        5.59537        2.37846
H         13.06615        7.83905        1.35640
H         13.40635        7.11099       -0.22334
H         15.33776        6.05915        0.82706
H         15.21084        8.83140        1.77309
H         15.67505        8.39540        0.11288
H         16.85604        8.92942        3.45865
H         19.20811        8.62036        4.20953
H         20.80324        7.34238        2.77331
H         20.03109        6.37620        0.61737
H         18.28105        6.18016       -0.82266
H         11.89338        3.48298        2.28762
H          7.85636        2.00995        2.74069
H         14.16539        1.57874        4.93547
H         14.45152        0.76528        3.36657
H         16.04551       -0.83135        4.49139
H         15.75514       -0.04430        6.04701
H         16.68040        2.11073        5.13715
H         16.95589        1.34129        3.57457
H         18.29413        0.46890        6.22085
H         19.06953        1.41656        4.93881
H         18.59243       -0.26479        4.63215
