101

C          0.52755       -0.30035       -0.09431
C          2.05787       -0.30901       -0.10134
C          2.66848        0.70543        0.87017
C          4.19988        0.71222        0.87907
C          4.79715        1.73049        1.85455
C          6.32845        1.74643        1.87572
C          6.91094        2.77149        2.85306
C          8.44182        2.79976        2.88255
C          9.01250        3.83485        3.85611
C         10.54319        3.87093        3.89302
C         11.10328        4.91383        4.86429
C         12.63323        4.97338        4.89409
C         13.18269        6.02652        5.86083
C         14.71229        6.10532        5.88110
C         15.25414        7.14323        6.86839
C         16.78386        7.21978        6.90707
C         17.31180        8.21687        7.94310
C         18.84095        8.28015        8.01676
C         19.34859        9.24175        9.09738
C         20.88008        9.30357        9.17692
C         21.42219       10.11879       10.36825
C         20.97339       11.59169       10.34409
N         21.67035       12.32977        9.28346
C         22.89973       11.99948        8.90295
N         23.54034       12.73280        7.91698
C         23.02177       13.85970        7.25613
O         21.89555       14.27396        7.49653
C         23.96148       14.50870        6.27558
N         23.54286       10.96973        9.43046
C         22.96540       10.12786       10.49235
C         23.65318        8.74933       10.43089
C         25.18084        8.85777       10.41848
O         25.75554        9.66830        9.65872
N         25.86375        8.02187       11.22077
C         27.32883        7.99332       11.29436
C         27.89104        8.88247       12.40891
C         29.42117        8.82722       12.47700
C         29.99561        9.72179       13.57714
H          0.11518       -1.03656       -0.79822
H          0.13435        0.68755       -0.37718
H          0.13356       -0.53822        0.90508
H          2.42439       -0.10111       -1.12082
H          2.42321       -1.31870        0.15161
H          2.29936        0.49765        1.89019
H          2.30124        1.71585        0.61701
H          4.57029        0.92148       -0.14000
H          4.56815       -0.29730        1.13356
H          4.42222        1.52173        2.87209
H          4.42729        2.73898        1.59815
H          6.70596        1.95551        0.85924
H          6.70115        0.74006        2.13595
H          6.53164        2.56183        3.86878
H          6.53433        3.77633        2.59215
H          8.82290        3.00548        1.86671
H          8.82085        1.79783        3.15069
H          8.62875        3.63011        4.87116
H          8.63221        4.83587        3.58616
H         10.92764        4.07416        2.87798
H         10.92610        2.87217        4.16732
H         10.72667        4.70380        5.88093
H         10.70698        5.90900        4.59568
H         13.00956        5.18004        3.87676
H         13.03296        3.98146        5.16910
H         12.81610        5.81112        6.87995
H         12.77043        7.01561        5.59440
H         15.07953        6.33677        4.86590
H         15.12504        5.11282        6.13378
H         14.87824        6.90988        7.88013
H         14.84480        8.13701        6.61564
H         17.16401        7.49107        5.90675
H         17.19268        6.21788        7.12614
H         16.91306        7.94869        8.93708
H         16.91495        9.22242        7.71875
H         19.24530        8.58251        7.03503
H         19.23949        7.26957        8.21264
H         18.94483        8.93011       10.07665
H         18.93137       10.24294        8.89819
H         21.28243        9.69699        8.22803
H         21.25558        8.27183        9.25901
H         21.02454        9.68339       11.29895
H         21.17230       12.07525       11.31330
H         19.89806       11.67286       10.15042
H         21.26871       13.14249        8.79559
H         24.47484       12.42205        7.66521
H         24.75863       13.84286        5.92291
H         24.42411       15.38082        6.76227
H         23.38001       14.87810        5.42365
H         24.53986       10.69832        9.22096
H         23.22298       10.58681       11.46390
H         23.36913        8.23209        9.50186
H         23.29723        8.13845       11.27207
H         25.33960        7.40890       11.83662
H         27.70603        8.32095       10.31655
H         27.63257        6.94673       11.44086
H         27.46555        8.57089       13.37780
H         27.56207        9.91996       12.23586
H         29.83870        9.12510       11.50102
H         29.74161        7.78520       12.64179
H         29.72392       10.77535       13.41692
H         31.09135        9.66181       13.60529
H         29.62072        9.42738       14.56809
