77

C          8.69335       -1.68078       -6.34270
C          8.49845       -0.56846       -5.30913
C          8.04617        0.76070       -5.92317
C          7.86326        1.88414       -4.89759
C          7.48811        3.22790       -5.53499
C          7.10747        4.33964       -4.54710
C          8.18529        4.66743       -3.50428
C          7.89908        5.96732       -2.74157
C          8.70262        6.14771       -1.45570
O         10.13384        5.98401       -1.59182
C         10.74962        6.95734       -2.42529
C         12.24453        6.87344       -2.22851
C         13.01203        7.92924       -1.70257
C         14.39294        7.75893       -1.56885
C         15.00623        6.56429       -1.94010
C         14.21812        5.54710       -2.43428
N         12.87445        5.70117       -2.55377
C         12.13448        4.56150       -3.13461
C         12.33022        4.50069       -4.65795
O         13.16308        5.14429       -5.25860
O         11.46117        3.61907       -5.16100
C         11.55759        3.33941       -6.60652
C         12.50815        2.18455       -6.88507
C         12.07821        0.85037       -6.27031
C         12.39717        9.25065       -1.32836
C         11.96350       10.02194       -2.60175
O         11.85139        9.40575       -3.66844
N         11.70436       11.34701       -2.47693
C         11.29290       12.08597       -3.68514
C          9.77784       12.08526       -3.89239
C         11.77560       12.09918       -1.21734
C         13.09704       12.84804       -1.02710
H          9.00144       -2.62232       -5.86796
H          9.46440       -1.41490       -7.08181
H          7.76377       -1.87847       -6.89650
H          9.43857       -0.41060       -4.75250
H          7.75697       -0.88959       -4.55846
H          7.09956        0.60731       -6.46959
H          8.77879        1.07807       -6.68746
H          8.79473        1.99040       -4.31506
H          7.08294        1.59087       -4.17305
H          6.64421        3.07449       -6.22713
H          8.32741        3.57825       -6.16249
H          6.17684        4.06386       -4.02216
H          6.87145        5.25201       -5.12008
H          9.15965        4.73999       -4.01700
H          8.28044        3.83452       -2.78827
H          6.83808        5.99581       -2.43998
H          8.03222        6.83390       -3.41086
H          8.42920        5.37949       -0.71942
H          8.50068        7.13867       -1.00881
H         10.40205        7.96846       -2.17620
H         10.52022        6.81307       -3.49893
H         14.99508        8.57756       -1.17193
H         16.08026        6.41591       -1.84872
H         14.61698        4.58416       -2.74423
H         11.07953        4.62511       -2.85241
H         12.53011        3.63807       -2.69117
H         11.87430        4.26146       -7.10877
H         10.52404        3.09659       -6.88410
H         13.52056        2.46415       -6.55401
H         12.56822        2.09171       -7.98182
H         11.98863        0.91397       -5.17688
H         12.80682        0.06214       -6.49891
H         11.10501        0.52573       -6.66322
H         13.12218        9.82473       -0.73786
H         11.51634        9.10453       -0.68246
H         11.79594       11.62042       -4.54144
H         11.67471       13.11193       -3.58625
H          9.40866       11.06367       -4.04990
H          9.52088       12.67961       -4.77945
H          9.24808       12.52230       -3.03437
H         11.58974       11.41874       -0.37623
H         10.93401       12.80800       -1.21498
H         13.95057       12.15637       -0.99358
H         13.07919       13.41588       -0.08737
H         13.27514       13.55911       -1.84465
