59

C         15.51949       -2.63641        4.84862
C         14.95958       -1.81842        3.68346
C         13.54866       -2.24896        3.27067
C         12.99049       -1.44948        2.08805
C         11.62072       -1.90884        1.61607
O         10.64534       -1.64803        2.64511
C          9.38684       -2.22511        2.36337
C          8.43325       -1.89988        3.52778
C          8.93873       -2.40045        4.85505
N          9.59648       -1.55579        5.68430
C          9.81987       -0.11648        5.36724
C          8.67402        0.75784        5.89631
C          9.06268        2.23752        5.96075
C         10.10430        2.51180        7.04442
O         10.58676        1.65242        7.74972
O         10.48570        3.80327        7.19358
C         10.07944       -1.96331        6.91352
C          9.94112       -3.25100        7.33942
C          9.27858       -4.20231        6.52095
C          8.76001       -3.75651        5.25545
C          8.07731       -4.70473        4.44315
C          7.93025       -6.00892        4.86300
C          8.44513       -6.45870        6.11009
C          9.11107       -5.54761        6.91671
C          8.28783       -7.90455        6.52489
C          9.47784       -8.74099        6.10818
C         10.23457       -9.44132        6.95548
H         16.53176       -2.30845        5.11992
H         15.57409       -3.70513        4.59424
H         14.88848       -2.54039        5.74513
H         15.63276       -1.90564        2.81476
H         14.95016       -0.74885        3.95227
H         12.87000       -2.15424        4.13516
H         13.55971       -3.32154        3.00706
H         13.67610       -1.53346        1.22904
H         12.94436       -0.37643        2.33773
H         11.63084       -2.99448        1.39871
H         11.32066       -1.38068        0.69249
H          9.48276       -3.32122        2.23910
H          8.95419       -1.81858        1.42889
H          7.45998       -2.36214        3.31792
H          8.25648       -0.81958        3.55847
H          9.98207       -0.01896        4.28964
H         10.75436        0.15460        5.87008
H          8.41008        0.42418        6.91022
H          7.77758        0.63797        5.27026
H          8.17003        2.84613        6.17609
H          9.45044        2.59905        4.99325
H         10.00664        4.38355        6.57508
H         10.56781       -1.18541        7.49847
H         10.34552       -3.53819        8.30959
H          7.65723       -4.40880        3.48353
H          7.39292       -6.71637        4.22881
H          9.51512       -5.86370        7.88070
H          7.37334       -8.30928        6.06075
H          8.16003       -7.96943        7.61518
H          9.70003       -8.76034        5.03662
H         10.03656       -9.45178        8.02949
H         11.07032      -10.04526        6.60271
