66

C          0.57497        1.21422       -3.84532
C          2.08039        1.40738       -4.04140
C          2.85011        1.53296       -2.72076
C          4.35354        1.75738       -2.91854
C          5.11721        1.92766       -1.59940
C          6.65086        2.00961       -1.73834
P          7.26023        3.28571       -2.88441
C          6.55617        4.91841       -2.51360
C          6.38765        5.81946       -3.75323
O          5.98892        7.13474       -3.35000
C          7.00947        7.92317       -2.85761
O          8.14896        7.51131       -2.76480
C          6.51203        9.29219       -2.47156
C          5.28527        9.28143       -1.53811
C          5.53284        8.55737       -0.21244
C          9.07014        3.30599       -2.96640
C          9.62626        4.27257       -4.02835
C         11.13655        4.09327       -4.23337
N         11.58682        4.97813       -5.29425
C         12.99757        4.76346       -5.66951
C         13.46001        5.74580       -6.71657
C         13.78865        5.33525       -8.01329
C         14.25096        6.23783       -8.97395
C         14.38699        7.58661       -8.63996
C         14.05759        8.02630       -7.35685
C         13.59808        7.11169       -6.40581
O         13.25573        7.50095       -5.12599
H          0.05839        1.11396       -4.80888
H          0.12668        2.06757       -3.31570
H          0.35987        0.30930       -3.25872
H          2.25894        2.30911       -4.65224
H          2.48978        0.56288       -4.62072
H          2.69534        0.62307       -2.11623
H          2.43071        2.36535       -2.12924
H          4.48760        2.65161       -3.55620
H          4.78009        0.91271       -3.48766
H          4.90853        1.07215       -0.93860
H          4.74656        2.81323       -1.05888
H          7.06957        1.06212       -2.11583
H          7.13423        2.20829       -0.76858
H          6.81534        2.93397       -4.18026
H          7.24110        5.39315       -1.79523
H          5.58704        4.76636       -2.01778
H          5.57505        5.45316       -4.39319
H          7.31630        5.87964       -4.33561
H          6.26378        9.82604       -3.40329
H          7.36084        9.81254       -2.00882
H          4.43094        8.83123       -2.06384
H          5.01097       10.32825       -1.34311
H          5.75303        7.48890       -0.36547
H          4.65038        8.61705        0.43783
H          6.38034        8.99444        0.33476
H          9.36647        2.26437       -3.17815
H          9.43797        3.54671       -1.95579
H          9.42046        5.31184       -3.72734
H          9.13478        4.10745       -5.00037
H         11.34214        3.05436       -4.54532
H         11.66448        4.23928       -3.26335
H         11.48663        5.95152       -4.99612
H         13.08828        3.74285       -6.07217
H         13.67012        4.82526       -4.78766
H         13.68604        4.27843       -8.26834
H         14.50700        5.89065       -9.97448
H         14.75092        8.30335       -9.37665
H         14.16006        9.08158       -7.09020
H         13.44369        8.44836       -5.02768
