61

C          0.85579        2.91675       -0.68405
C          2.36684        2.77072       -0.86808
C          2.96695        1.63602       -0.02554
C          4.48813        1.50800       -0.15304
C          4.99574        0.07018       -0.01059
O          6.40948       -0.01804       -0.08120
C          7.03252        0.72120        0.97815
C          6.72697        2.22425        0.82972
N          5.20444        2.34264        0.89451
C          7.29549        2.88679       -0.43212
C          6.71853        4.27532       -0.70633
O          6.75645        4.98188        0.52743
C          6.05872        6.22276        0.57890
C          4.54174        6.07580        0.47788
O          4.12289        4.98764        1.31881
C          2.78034        5.13199        1.79884
C          8.51459        0.35747        0.99307
C          9.16736        0.80351        2.30988
O          8.52123        1.49304        3.11441
N         10.44668        0.41104        2.55030
C         11.25316       -0.40568        1.63537
C         11.22231       -1.90205        1.95990
C         11.06495        0.80970        3.82707
C         11.78206        2.15807        3.74582
H          0.45923        3.73587       -1.29770
H          0.59393        3.12637        0.36354
H          0.32760        1.99849       -0.97803
H          2.86797        3.72029       -0.62268
H          2.59322        2.57508       -1.92890
H          2.51732        0.67924       -0.33707
H          2.68707        1.75263        1.03644
H          4.82090        1.90449       -1.12272
H          4.59646       -0.53467       -0.83507
H          4.62828       -0.36574        0.94284
H          6.60146        0.39663        1.94758
H          7.09259        2.73957        1.72574
H          4.89855        3.34994        0.89133
H          4.92351        1.99171        1.82188
H          7.16415        2.24815       -1.31756
H          8.37736        2.98542       -0.26635
H          5.68314        4.20231       -1.09621
H          7.31117        4.79127       -1.48304
H          6.40702        6.91917       -0.20633
H          6.32559        6.64390        1.55709
H          4.20045        5.89150       -0.55757
H          4.07973        7.01959        0.81274
H          2.53896        4.22317        2.36380
H          2.06045        5.24660        0.97233
H          2.70333        6.00189        2.46960
H          9.03743        0.79086        0.12713
H          8.57694       -0.73358        0.87137
H         12.28556       -0.02862        1.68605
H         10.92072       -0.22974        0.60429
H         11.58753       -2.10003        2.97640
H         11.86342       -2.45507        1.26038
H         10.20432       -2.30804        1.88378
H         11.76472        0.01241        4.11522
H         10.26887        0.84714        4.58061
H         12.57688        2.15116        2.98688
H         12.24574        2.39587        4.71274
H         11.07240        2.95917        3.50285
