72

C          1.03941        3.79905      -12.95142
C          2.56613        3.87248      -12.86732
C          3.08907        3.98611      -11.43110
C          4.61549        4.07337      -11.33474
C          5.13045        4.22114       -9.89945
C          6.65494        4.33642       -9.80247
C          7.16589        4.50995       -8.36856
C          8.68728        4.66425       -8.27922
C          9.19956        4.85497       -6.84761
C         10.72060        5.04940       -6.77694
C         11.21146        5.23027       -5.34573
O         12.65614        5.32414       -5.23713
C         13.19306        6.56163       -5.64661
C         14.69907        6.55993       -5.31838
C         15.41782        7.72492       -6.07700
N         16.80981        7.52076       -6.39742
C         17.06464        6.28602       -7.11310
C         16.65120        5.01584       -6.34631
N         15.19604        5.20648       -5.87869
C         17.55317        4.60636       -5.18105
C         18.94949        4.09391       -5.60430
C         19.76070        3.76654       -4.34262
C         18.88922        2.88827       -6.55263
C         14.98231        6.57571       -3.78107
C         14.09485        7.47249       -2.86521
F         14.04190        8.73702       -3.38624
F         12.83101        6.98889       -2.76852
F         14.90960        5.29905       -3.26936
F         16.26688        7.01548       -3.54193
H          0.69577        3.72451      -13.99218
H          0.57207        4.69249      -12.51103
H          0.65065        2.92370      -12.41008
H          2.92642        4.73577      -13.45234
H          3.00602        2.98063      -13.34501
H          2.73421        3.12034      -10.84439
H          2.64308        4.87589      -10.95230
H          4.96960        4.92842      -11.93749
H          5.06390        3.17500      -11.79447
H          4.78949        3.36060       -9.29745
H          4.66924        5.11219       -9.43829
H          6.99384        5.19103      -10.41454
H          7.12007        3.44112      -10.25128
H          6.84854        3.64616       -7.75869
H          6.68377        5.39326       -7.91439
H          9.00083        5.52565       -8.89510
H          9.17315        3.77932       -8.72623
H          8.91249        3.98339       -6.23483
H          8.69748        5.72585       -6.39256
H         10.99349        5.92427       -7.39172
H         11.22874        4.17577       -7.21924
H         10.95246        4.35824       -4.73024
H         10.76498        6.12252       -4.87263
H         12.69586        7.41845       -5.16057
H         13.09489        6.71196       -6.74110
H         15.29825        8.64601       -5.49517
H         14.86882        7.87251       -7.02248
H         17.42844        7.66101       -5.60190
H         18.13127        6.21464       -7.36069
H         16.52376        6.32800       -8.07464
H         16.57073        4.17405       -7.05088
H         14.96298        4.49678       -5.16657
H         14.57051        4.99621       -6.66800
H         17.05240        3.80565       -4.60745
H         17.68575        5.44495       -4.48449
H         19.47159        4.91569       -6.12602
H         19.30548        2.93477       -3.78365
H         19.82624        4.63044       -3.66612
H         20.78437        3.46871       -4.60418
H         18.32349        2.05644       -6.10449
H         19.90089        2.51802       -6.76379
H         18.43287        3.12548       -7.52484
H         14.55123        7.51100       -1.86293
