78

C          1.94871        1.94502       14.02213
C          3.44306        2.05326       13.70902
C          3.73562        2.53401       12.28298
C          5.23112        2.63399       11.96685
C          5.53575        3.09441       10.53711
C          7.03561        3.15840       10.23165
C          7.36117        3.59513        8.79820
C          8.86998        3.61533        8.52058
C          9.20520        4.03471        7.10002
O         10.64284        3.95594        6.94070
C         11.07573        4.36505        5.67875
N         12.53983        4.38214        5.72147
N         13.21088        5.50056        6.11164
C         14.47952        5.15353        6.12080
N         14.60832        3.81548        5.74419
C         13.36127        3.36079        5.50406
C         15.86127        3.06183        5.66575
C         15.76821        1.82830        4.73212
O         14.80653        1.64363        3.98841
N         16.83797        1.01424        4.81179
C         16.96908       -0.20938        4.00625
C         18.27597       -0.93603        4.31805
C         18.40556       -1.44123        5.76253
C         19.68849       -2.24159        5.99832
C         15.62020        6.03273        6.50780
C         15.31363        7.52380        6.34615
C         16.46676        8.39271        6.87838
N         16.24479        9.75741        6.41522
C         17.42283       10.63099        6.46078
C         17.02451       12.05288        6.10647
O         16.07145       12.47564        7.09135
O         15.12764        7.77923        4.96447
H          1.77708        1.59513       15.04930
H          1.44790        1.23871       13.34328
H          1.44565        2.91763       13.91489
H          3.92363        1.07223       13.86449
H          3.92198        2.73939       14.42811
H          3.26009        3.51824       12.12516
H          3.25460        1.84906       11.56248
H          5.70400        1.65071       12.13844
H          5.70976        3.32583       12.68223
H          5.08260        4.08666       10.36624
H          5.04561        2.41134        9.82133
H          7.48515        2.16708       10.41727
H          7.52430        3.84830       10.94158
H          6.93367        4.59563        8.61317
H          6.86301        2.91352        8.08723
H          9.29401        2.61403        8.69904
H          9.37334        4.30151        9.22011
H          8.87457        5.07014        6.89697
H          8.71956        3.36900        6.36200
H         10.76018        5.39093        5.42160
H         10.77465        3.66997        4.87184
H         13.10145        2.36735        5.15990
H         16.15383        2.75599        6.68123
H         16.63242        3.74321        5.28120
H         17.57668        1.21793        5.47816
H         16.91697        0.06586        2.94283
H         16.10188       -0.85626        4.21359
H         19.13091       -0.28514        4.06452
H         18.34036       -1.79182        3.62844
H         17.52716       -2.06139        6.00706
H         18.37943       -0.59502        6.47281
H         19.72251       -3.13321        5.35611
H         19.76226       -2.57939        7.04004
H         20.58308       -1.64115        5.77793
H         16.49399        5.79733        5.87995
H         15.89941        5.81208        7.55304
H         14.38992        7.76259        6.91173
H         17.41406        8.03769        6.43850
H         16.55290        8.29346        7.97954
H         15.50513       10.20769        6.96052
H         18.16580       10.27081        5.73200
H         17.90486       10.63433        7.45898
H         16.58127       12.07769        5.09509
H         17.92117       12.69679        6.11518
H         15.74662       13.35766        6.85709
H         15.36646        8.73309        4.88227
