73

C          0.92770       -0.32371       -0.20276
C          2.45260       -0.19221       -0.17770
C          3.15528       -1.10312       -1.19063
C          4.68298       -0.98353       -1.16932
C          5.37771       -1.91250       -2.16996
C          6.90794       -1.81681       -2.13698
C          7.57502       -2.76926       -3.13822
C          9.08979       -2.70413       -3.09110
O          9.60324       -3.63658       -4.08549
C         10.97856       -3.76426       -4.09756
N         11.26457       -4.87448       -5.08340
C         12.74771       -5.06333       -5.32045
C         12.98628       -6.06763       -6.46980
C         12.69446       -5.44758       -7.85430
C         13.03245       -6.39837       -9.00891
C         12.46360       -5.91896      -10.34927
C         12.79103       -6.90636      -11.47403
S         11.87185       -6.45562      -12.96788
O         10.46301       -6.68529      -12.73888
O         12.35656       -5.18898      -13.46514
Cl        12.53881       -7.93729      -14.26952
N         12.24049       -7.31233       -6.27591
C         10.83007       -7.12756       -5.98281
C         10.53008       -6.20075       -4.78388
C         10.90560       -6.76549       -3.41666
C          9.99313       -7.92639       -3.00936
O         10.33381       -8.23796       -1.67247
C          9.64045       -9.36151       -1.16061
C         10.12819       -9.60239        0.26561
F         11.46117       -9.83434        0.30787
F          9.86880       -8.54595        1.07130
F          9.49541      -10.68634        0.77548
H          0.45548        0.33785        0.53594
H          0.61119       -1.35274        0.02417
H          0.51919       -0.06310       -1.19036
H          2.82617       -0.42109        0.83473
H          2.73624        0.85557       -0.37393
H          2.78426       -0.87449       -2.20534
H          2.86926       -2.15188       -0.99502
H          5.05185       -1.20189       -0.15176
H          4.97170        0.06148       -1.37790
H          5.02065       -1.68601       -3.18969
H          5.07608       -2.95532       -1.96828
H          7.26570       -2.03976       -1.11708
H          7.21599       -0.77905       -2.35048
H          7.24197       -2.53095       -4.16105
H          7.25978       -3.80545       -2.93349
H          9.47796       -2.99706       -2.09887
H          9.46139       -1.69124       -3.32623
H         11.41116       -4.04873       -3.12140
H         11.50404       -2.86756       -4.47926
H         10.85310       -4.54634       -5.97155
H         13.18001       -5.41963       -4.37753
H         13.16578       -4.07283       -5.54722
H         14.05702       -6.32141       -6.43445
H         13.26470       -4.51000       -7.94970
H         11.62922       -5.16082       -7.93893
H         12.62913       -7.39421       -8.77121
H         14.12708       -6.51154       -9.07726
H         12.85536       -4.92391      -10.60875
H         11.36949       -5.82090      -10.26331
H         12.47776       -7.93257      -11.23768
H         13.85290       -6.90121      -11.75370
H         12.69990       -7.94306       -5.62269
H         10.36958       -8.10620       -5.79822
H         10.32426       -6.72656       -6.87752
H          9.46843       -5.91768       -4.78649
H         10.80061       -6.00038       -2.63429
H         11.94831       -7.11503       -3.38573
H         10.14319       -8.80957       -3.66076
H          8.92702       -7.63119       -3.08819
H          9.84553      -10.27415       -1.74892
H          8.54892       -9.19434       -1.12495
