91

C          5.54125       -7.10205       -2.25561
C          5.86392       -5.69045       -1.75974
C          6.78180       -5.67556       -0.53215
C          7.12129       -4.26714       -0.03499
C          8.03558       -4.25304        1.19472
C          8.39217       -2.84084        1.66910
C          9.28978       -2.81337        2.91060
C          9.67881       -1.39265        3.33439
C         10.53216       -1.34871        4.60655
C         10.99622        0.07321        4.93545
N         11.76909        0.18352        6.18117
C         13.06937       -0.13422        6.37440
N         13.89956       -0.18889        5.31215
C         15.14962       -0.99141        5.19384
O         15.02932       -2.28323        5.68381
C         14.28689       -3.19907        4.84579
C         14.13485       -4.51079        5.59308
C         13.27437       -5.52712        4.83324
C         13.13010       -6.85669        5.58191
C         12.24175       -7.87610        4.86327
C         12.12087       -9.21050        5.60808
C         11.20603      -10.21701        4.90630
N         13.47886       -0.35244        7.63179
C         14.83756       -0.27606        8.19145
C         14.74034       -0.02217        9.69645
C         16.11866       -0.08714       10.35872
S         16.04687       -0.04629       12.16716
C         15.70235       -1.77223       12.55907
S         15.48365       -2.93762       11.37970
N         15.64715       -2.01253       13.88750
C         15.86386       -0.97940       14.91355
C         14.56556       -0.34403       15.41758
C         15.36333       -3.36800       14.39303
C         16.63135       -4.19524       14.60996
H          4.88321       -7.08050       -3.13470
H          5.03522       -7.69331       -1.47787
H          6.45559       -7.64440       -2.53920
H          4.92714       -5.15994       -1.51889
H          6.33638       -5.11329       -2.57255
H          7.71648       -6.21354       -0.77082
H          6.30625       -6.24715        0.28443
H          6.18728       -3.72689        0.19969
H          7.60043       -3.69850       -0.85145
H          8.96356       -4.80677        0.96690
H          7.54906       -4.80480        2.01819
H          7.46456       -2.28104        1.88085
H          8.89065       -2.29742        0.84724
H         10.20551       -3.39982        2.71741
H          8.77604       -3.31943        3.74640
H          8.76602       -0.79151        3.48655
H         10.22580       -0.90718        2.50692
H         11.41086       -2.00382        4.48995
H          9.96113       -1.74603        5.46113
H         10.13237        0.74119        5.05921
H         11.57046        0.50392        4.09870
H         11.24949        0.43627        7.01489
H         13.49313        0.12733        4.43853
H         15.95566       -0.51285        5.76239
H         15.40175       -0.95475        4.11962
H         14.83038       -3.33132        3.89235
H         13.29436       -2.77171        4.61547
H         13.68533       -4.30189        6.57765
H         15.13463       -4.92891        5.78890
H         13.71073       -5.71462        3.83701
H         12.27192       -5.09950        4.65086
H         12.72311       -6.66401        6.59005
H         14.13209       -7.29153        5.74051
H         12.63884       -8.05959        3.84935
H         11.23421       -7.44637        4.71917
H         11.74913       -9.02344        6.62992
H         13.12639       -9.64753        5.72952
H         10.18042       -9.82919        4.81480
H         11.15355      -11.16446        5.45927
H         11.56490      -10.44481        3.89159
H         12.74816       -0.56796        8.30465
H         15.37605        0.54278        7.69189
H         15.36976       -1.22243        8.00540
H         14.11629       -0.81255       10.14416
H         14.26617        0.95147        9.89305
H         16.74454        0.77729       10.09150
H         16.64011       -1.01527       10.08066
H         16.54311       -0.21616       14.50832
H         16.40500       -1.45898       15.74255
H         14.02958        0.15974       14.60285
H         14.79070        0.40089       16.19263
H         13.89613       -1.09477       15.85866
H         14.70528       -3.85946       13.66552
H         14.80835       -3.24759       15.33478
H         17.16829       -4.33477       13.66329
H         16.36357       -5.18560       15.00183
H         17.31055       -3.72061       15.33142
