67

C          1.50947       -1.13353       -1.28856
C          2.99075       -1.02977       -1.65918
C          3.40301        0.36731       -2.13694
C          4.89006        0.47871       -2.48766
C          5.30063        1.85890       -3.01161
C          6.79988        1.96955       -3.30574
C          7.21515        3.31764       -3.90598
C          8.72820        3.40960       -4.14170
C          9.14306        4.69396       -4.83481
O         10.59045        4.69249       -4.94236
C         11.10113        5.77004       -5.65899
N         12.57491        5.53859       -5.73118
C         13.36200        6.74285       -6.24704
O         13.97632        6.31902       -7.42114
C         14.36378        4.96562       -7.18006
C         13.10515        4.30846       -6.55876
C         12.09440        3.91613       -7.64761
C         12.50109        2.68927       -8.47151
O         11.54171        2.55820       -9.49483
C         11.79506        1.42855      -10.34604
C         10.68943        1.34043      -11.37818
C         13.40458        3.13896       -5.59812
C         14.23158        3.43310       -4.33408
O         13.59334        4.47367       -3.52745
C         14.47273        2.18281       -3.50420
H          1.24983       -2.14594       -0.95056
H          0.86421       -0.89492       -2.14723
H          1.25016       -0.43652       -0.47789
H          3.22675       -1.76523       -2.44706
H          3.60864       -1.31202       -0.78959
H          3.15498        1.10831       -1.35670
H          2.79682        0.64385       -3.01780
H          5.14541       -0.28575       -3.24261
H          5.49263        0.23306       -1.59530
H          5.01365        2.63210       -2.27799
H          4.72928        2.08542       -3.92873
H          7.09678        1.16135       -3.99688
H          7.36684        1.79455       -2.37456
H          6.89525        4.13513       -3.23758
H          6.67958        3.47288       -4.85835
H          9.06331        2.55578       -4.75345
H          9.25905        3.33961       -3.17802
H          8.82579        5.58512       -4.26381
H          8.70826        4.76105       -5.84878
H         10.95829        6.73344       -5.13234
H         10.68938        5.85337       -6.68061
H         12.88426        5.31601       -4.73544
H         14.08287        7.01201       -5.45442
H         12.69196        7.58301       -6.46481
H         15.23468        4.92686       -6.50155
H         14.63862        4.51860       -8.14076
H         11.95940        4.75372       -8.34836
H         11.12012        3.69548       -7.19070
H         12.52221        1.77547       -7.84458
H         13.51738        2.80915       -8.90270
H         11.83705        0.50948       -9.73012
H         12.78318        1.55124      -10.82977
H          9.71292        1.20295      -10.89550
H         10.86634        0.48561      -12.04415
H         10.65085        2.25045      -11.99093
H         13.95151        2.38001       -6.17790
H         12.45069        2.67441       -5.30281
H         15.20035        3.88114       -4.60352
H         12.90424        4.05842       -2.97883
H         13.52098        1.72231       -3.19665
H         15.05410        2.42445       -2.60581
H         15.03230        1.43369       -4.07997
