88

C          0.88222       -0.77648        0.42803
C          2.40756       -0.66745        0.49339
C          3.12827       -1.90408       -0.05632
C          4.65505       -1.77132       -0.04030
C          5.38029       -2.99119       -0.62613
C          6.86965       -2.73810       -0.78582
O          7.49143       -3.88711       -1.40669
C          8.73385       -3.59466       -2.01423
C          9.14657       -4.76288       -2.91535
C          8.40457       -4.84001       -4.27530
C          9.02077       -5.97400       -5.11547
C          8.91371       -7.31107       -4.38600
C          9.55529       -7.24816       -3.00994
N          9.02346       -6.09978       -2.16587
C          9.65530       -6.08031       -0.78348
C          9.51376       -7.40840       -0.04277
C          9.90300       -7.23285        1.43172
S          9.97202       -8.89257        2.16389
C         10.58229       -8.53236        3.82082
S         10.83215       -6.97479        4.34659
N         10.79895       -9.65323        4.54924
C         11.24507       -9.59901        5.94732
C         10.27351      -10.39100        6.82151
O         10.12943      -11.73655        6.36456
C          9.65234      -11.76828        5.02651
C         10.60015      -11.02780        4.07744
C          6.86214       -4.89703       -4.14677
C          6.10625       -4.94928       -5.47716
O          5.91681       -6.33880       -5.86388
C          6.20067       -6.68865       -7.15358
O          6.78258       -5.97756       -7.94596
C          5.71310       -8.08979       -7.44304
S          6.94267       -9.34835       -6.93187
C          4.70934       -4.33862       -5.35365
O          4.10444       -4.27337       -6.65389
C          3.09722       -5.16129       -6.92644
O          2.69156       -5.99721       -6.14716
C          2.56688       -4.93986       -8.32305
S          1.37788       -3.54695       -8.36560
H          0.39995        0.12592        0.82686
H          0.51522       -1.63375        1.01133
H          0.53457       -0.90733       -0.60751
H          2.72275       -0.49651        1.53634
H          2.73690        0.22171       -0.07072
H          2.79208       -2.08962       -1.09192
H          2.82688       -2.79371        0.52366
H          5.00082       -1.59478        0.99219
H          4.93939       -0.87100       -0.61305
H          4.95718       -3.23184       -1.61589
H          5.21798       -3.87564        0.01061
H          7.35720       -2.53807        0.18578
H          7.03728       -1.85638       -1.43155
H          9.51428       -3.37847       -1.25971
H          8.66497       -2.69661       -2.65765
H         10.22380       -4.66069       -3.12336
H          8.64892       -3.88587       -4.77143
H         10.08147       -5.73725       -5.30278
H          8.54686       -6.03002       -6.10234
H          9.41884       -8.10801       -4.94883
H          7.86491       -7.63336       -4.30774
H         10.64175       -7.08338       -3.07152
H          9.37772       -8.16885       -2.44531
H          8.01208       -6.24031       -2.01759
H          9.14568       -5.28265       -0.23145
H         10.70983       -5.80373       -0.92183
H         10.15717       -8.17762       -0.49272
H          8.47358       -7.77114       -0.10821
H          9.17664       -6.61827        1.97993
H         10.89095       -6.76496        1.54765
H         11.29353       -8.54673        6.25085
H         12.25523      -10.03726        6.00872
H          9.28796       -9.88679        6.83504
H         10.65327      -10.45231        7.84954
H          8.64241      -11.31666        4.96469
H          9.58468      -12.82691        4.74194
H         10.19009      -11.03248        3.06037
H         11.57953      -11.53515        4.05281
H          6.52644       -4.01197       -3.59292
H          6.52171       -5.75741       -3.54711
H          6.65540       -4.44154       -6.28510
H          5.50688       -8.18619       -8.51407
H          4.80749       -8.31067       -6.86549
H          7.86243       -9.04109       -7.87781
H          4.78104       -3.30317       -4.99142
H          4.07800       -4.93504       -4.67826
H          2.09256       -5.85888       -8.68224
H          3.37762       -4.64579       -9.00082
H          0.41179       -4.16486       -7.64528
