83

C         13.83516       -8.05641      -15.71208
C         13.18286       -6.68543      -15.51534
C         13.72549       -5.92467      -14.30042
C         13.08803       -4.54641      -14.09866
C         13.61895       -3.79825      -12.87164
C         12.99316       -2.41366      -12.67698
C         13.51069       -1.67213      -11.44044
C         12.88245       -0.28826      -11.24940
C         13.38176        0.45115      -10.00428
C         12.75565        1.83749       -9.82703
C         13.24009        2.58362       -8.57993
C         12.64649        3.99194       -8.45964
C         13.07117        4.78379       -7.21206
C         14.58674        4.97877       -7.02633
C         15.28940        5.56390       -8.26009
C         16.76527        5.88608       -8.01106
C         16.98599        7.06729       -7.03764
N         18.23551        7.66317       -7.54142
C         18.60973        7.25308       -8.72253
C         17.63080        6.26709       -9.25885
C         16.84201        6.89142      -10.47287
O         17.64835        7.10360      -11.60115
C         17.94854        5.93268      -12.39858
C         16.73808        5.28771      -13.06695
C         15.92802        6.23915      -13.95340
C         14.75129        5.55297      -14.65603
C         13.94269        6.50633      -15.53883
C         19.81596        7.79825       -9.40577
C         19.56077        9.20629      -10.00227
H         13.42051       -8.57974      -16.58458
H         13.68149       -8.70157      -14.83417
H         14.92079       -7.96360      -15.86596
H         12.09180       -6.80822      -15.40728
H         13.32817       -6.07356      -16.42188
H         14.81933       -5.80905      -14.40271
H         13.57226       -6.53437      -13.39230
H         11.99318       -4.66011      -14.00943
H         13.25343       -3.93190      -15.00139
H         14.71563       -3.69480      -12.95353
H         13.44169       -4.40840      -11.96846
H         11.89603       -2.51625      -12.60579
H         13.17921       -1.79939      -13.57592
H         14.60853       -1.56959      -11.50825
H         13.32138       -2.28543      -10.54196
H         11.78475       -0.39151      -11.19328
H         13.07981        0.32882      -12.14421
H         14.48140        0.54976      -10.05351
H         13.17534       -0.16066       -9.10879
H         11.65693        1.74133       -9.78836
H         12.96969        2.44997      -10.72186
H         14.34403        2.63120       -8.60303
H         12.98804        1.99999       -7.67752
H         11.54730        3.91799       -8.45645
H         12.89095        4.56645       -9.37084
H         12.67971        4.28437       -6.31174
H         12.58680        5.77393       -7.24202
H         15.06524        4.01903       -6.77011
H         14.74243        5.63536       -6.15395
H         14.75628        6.47065       -8.59508
H         15.22019        4.84014       -9.08679
H         17.23792        4.99673       -7.56296
H         17.11346        6.76942       -5.99006
H         16.18336        7.82104       -7.08863
H         18.74485        8.38080       -7.02340
H         18.16352        5.39065       -9.65804
H         16.42626        7.87066      -10.19306
H         15.99784        6.21669      -10.68235
H         18.49579        5.18883      -11.78832
H         18.64779        6.31482      -13.15510
H         16.08191        4.81606      -12.31418
H         17.12622        4.44915      -13.66951
H         16.59702        6.68764      -14.70817
H         15.55280        7.08283      -13.35015
H         14.08973        5.09882      -13.89820
H         15.13034        4.71544      -15.26534
H         13.52183        7.33645      -14.95229
H         13.10650        5.98760      -16.02596
H         14.56742        6.94424      -16.33097
H         20.11494        7.10747      -10.20236
H         20.64065        7.85112       -8.67732
H         18.78671        9.16854      -10.77649
H         20.48860        9.56561      -10.46296
H         19.26657        9.92684       -9.22770
