75

C          0.73564       -1.83764        5.64943
C          2.23733       -1.65955        5.41850
C          2.70439       -2.19502        4.06092
C          4.20675       -2.00970        3.82170
C          4.65292       -2.47191        2.43136
C          6.16081       -2.24229        2.13252
C          7.07729       -3.14899        2.90429
C          7.58461       -2.78217        4.15453
C          8.38320       -3.64813        4.89213
C          8.69084       -4.91679        4.38467
C          8.19031       -5.25091        3.13298
N          7.41213       -4.38747        2.42253
C          6.97153       -4.82035        1.06144
C          7.88300       -4.26239       -0.05457
C          8.93512       -5.25277       -0.57134
S          8.23135       -6.53206       -1.65461
C          8.36331       -8.05027       -0.69568
S          8.79785       -8.08294        0.92455
N          8.06885       -9.15333       -1.41255
C          7.76563       -9.14427       -2.85566
C          6.26855       -9.06858       -3.16057
C          8.04891      -10.48396       -0.77352
C          9.40678      -11.18218       -0.82715
C          9.53778       -5.89107        5.16312
O          9.60814       -7.11124        4.47398
C         10.38529       -8.10453        5.16926
C         10.34804       -9.40129        4.38039
C         11.14837      -10.51715        5.06145
C         11.11005      -11.84009        4.28872
C         11.90358      -12.95471        4.97261
H          0.43164       -1.43654        6.62515
H          0.45084       -2.89958        5.62278
H          0.14929       -1.31764        4.87812
H          2.79761       -2.16622        6.22247
H          2.49836       -0.59052        5.49348
H          2.14192       -1.68773        3.25821
H          2.44902       -3.26606        3.98135
H          4.76328       -2.55398        4.60365
H          4.46477       -0.94309        3.94444
H          4.08702       -1.91813        1.66627
H          4.39742       -3.53561        2.29155
H          6.41665       -1.20737        2.40273
H          6.34353       -2.33274        1.05465
H          7.33460       -1.79462        4.53951
H          8.76659       -3.33898        5.86695
H          8.40219       -6.21030        2.65352
H          5.93392       -4.49651        0.93882
H          6.99168       -5.91881        1.05886
H          8.39958       -3.35824        0.30529
H          7.24938       -3.93633       -0.89194
H          9.45381       -5.78787        0.24171
H          9.67905       -4.72570       -1.18320
H          8.19547      -10.06681       -3.27190
H          8.30492       -8.30869       -3.32303
H          5.72561       -9.91409       -2.71713
H          6.11017       -9.10081       -4.24704
H          5.83084       -8.13712       -2.77896
H          7.28440      -11.07397       -1.29948
H          7.72584      -10.34831        0.26597
H          9.75456      -11.31656       -1.86057
H          9.32764      -12.17680       -0.36781
H         10.15903      -10.60567       -0.27446
H          9.09696       -6.02053        6.17425
H         10.54638       -5.45007        5.31559
H          9.96500       -8.24891        6.18338
H         11.42375       -7.73911        5.28454
H         10.74257       -9.21670        3.36839
H          9.29818       -9.71257        4.25808
H         10.75861      -10.68326        6.08084
H         12.19834      -10.19937        5.18365
H         11.50218      -11.67552        3.27108
H         10.06017      -12.15443        4.16392
H         12.96278      -12.67986        5.08415
H         11.86255      -13.88863        4.39608
H         11.50873      -13.16641        5.97707
