76

C         10.09515       -2.38158      -19.11296
C         10.84773       -3.26208      -18.11243
C         11.47690       -2.47225      -16.95888
C         12.23772       -3.35257      -15.96251
C         12.87893       -2.56953      -14.81222
C         13.63370       -3.46657      -13.82465
C         14.29787       -2.68211      -12.68263
C         15.01458       -3.62263      -11.73008
O         15.78562       -2.88262      -10.69826
C         15.14414       -2.51973       -9.60591
O         13.97539       -2.72712       -9.31396
C         16.05093       -1.73825       -8.64611
N         15.33917       -1.71368       -7.32683
C         15.59212       -2.96969       -6.49690
C         14.37116       -3.30288       -5.64829
C         14.72034       -4.33568       -4.56792
S         13.49545       -4.41130       -3.24052
C         13.93272       -2.95813       -2.26822
S         15.20783       -1.94408       -2.67853
N         13.14511       -2.78907       -1.18723
C         12.07720       -3.74370       -0.81945
C         12.54580       -4.97949       -0.03412
C         13.21768       -4.69166        1.31323
C         13.56909       -5.97214        2.07526
C         13.34711       -1.62807       -0.29214
C         12.69041       -0.33002       -0.78000
C         11.16668       -0.38051       -0.94241
C         10.57258        0.97658       -1.32792
C         15.57908       -0.45925       -6.54117
H          9.65608       -2.97936      -19.92313
H         10.76325       -1.63869      -19.57324
H          9.27626       -1.83185      -18.62533
H         11.63785       -3.82455      -18.63812
H         10.16175       -4.02098      -17.69946
H         10.68715       -1.91336      -16.42600
H         12.16057       -1.70883      -17.37061
H         13.02081       -3.91630      -16.49918
H         11.55076       -4.11119      -15.54814
H         12.09902       -2.00575      -14.27131
H         13.57152       -1.81466      -15.22311
H         14.40233       -4.04168      -14.36873
H         12.93627       -4.21058      -13.40289
H         13.53613       -2.10624      -12.13376
H         15.02238       -1.96182      -13.09485
H         15.79056       -4.20883      -12.23642
H         14.32096       -4.29479      -11.20830
H         16.17116       -0.70968       -9.01373
H         17.04321       -2.18974       -8.53595
H         14.33756       -1.77945       -7.61343
H         16.47365       -2.76162       -5.87422
H         15.83412       -3.77754       -7.19972
H         13.55274       -3.66784       -6.28696
H         14.03047       -2.39375       -5.13206
H         15.68456       -4.09375       -4.09653
H         14.75836       -5.35902       -4.96855
H         11.55802       -4.05378       -1.73986
H         11.34545       -3.17787       -0.22893
H         13.22175       -5.58064       -0.66189
H         11.64907       -5.60165        0.12577
H         12.55168       -4.06660        1.93255
H         14.13536       -4.10290        1.15160
H         12.67117       -6.57128        2.28603
H         14.05027       -5.74477        3.03564
H         14.26066       -6.60339        1.49820
H         14.42942       -1.48028       -0.18214
H         12.93927       -1.91602        0.68535
H         13.16060       -0.02500       -1.72769
H         12.95692        0.44708       -0.04399
H         10.70402       -0.72667       -0.00210
H         10.89821       -1.12478       -1.71077
H         10.78246        1.73621       -0.56092
H          9.48247        0.91890       -1.44793
H         10.99324        1.34211       -2.27668
H         16.65844       -0.33263       -6.40271
H         15.09590       -0.55344       -5.56166
H         15.16398        0.39152       -7.09249
