70

C          0.98541        1.03739        0.82207
C          2.45712        0.70707        0.56523
C          3.05273        1.48991       -0.60927
C          4.53201        1.17955       -0.86125
C          5.11926        1.98092       -2.02943
C          6.59431        1.69242       -2.24895
O          7.06261        2.49917       -3.34949
C          8.44883        2.34343       -3.59081
C          8.84379        3.27300       -4.71506
N          9.50577        2.68855       -5.70437
N          9.85783        3.45594       -6.73337
C          9.56418        4.74967       -6.93540
C          8.87726        5.37904       -5.88344
C          8.53725        4.67268       -4.73958
C          7.92371        5.35760       -3.55640
C          8.91824        5.40816       -2.38305
O         10.08417        5.07595       -2.47380
O          8.30312        5.85924       -1.28286
C          9.12793        6.01928       -0.07485
C          9.57597        7.46255        0.08221
C         10.37397        7.67321        1.37562
C         10.79871        9.12998        1.57105
C          9.96309        5.40188       -8.25068
C          8.64122        5.58655       -9.10485
C          8.89187        6.33530      -10.42239
C          7.91009        4.26590       -9.38266
C         10.56135        6.79184       -7.92014
O         11.55517        6.60980       -6.91537
C         11.03064        4.56944       -8.98799
H          0.58674        0.46310        1.66896
H          0.36585        0.80665       -0.05719
H          0.85062        2.10497        1.05068
H          2.56612       -0.37338        0.37325
H          3.04626        0.91504        1.47421
H          2.93425        2.57176       -0.42256
H          2.47270        1.27433       -1.52350
H          4.65093        0.10012       -1.05631
H          5.10766        1.39038        0.05664
H          4.99155        3.05937       -1.83905
H          4.56828        1.75379       -2.95596
H          6.76108        0.62446       -2.48349
H          7.18334        1.93473       -1.34344
H          8.70379        1.31148       -3.89066
H          9.04978        2.59043       -2.69187
H         10.39799        2.95686       -7.44329
H          8.64596        6.44066       -5.96121
H          7.02594        4.81741       -3.22463
H          7.63042        6.38735       -3.80387
H          9.97994        5.33065       -0.14350
H          8.46439        5.70926        0.74281
H          8.69035        8.11791        0.07859
H         10.19461        7.74662       -0.78457
H         11.26534        7.02492        1.36436
H          9.76743        7.34733        2.23667
H         11.42791        9.47709        0.73863
H         11.37362        9.25468        2.49777
H          9.92451        9.79457        1.62856
H          7.97450        6.21472       -8.48802
H          9.53168        5.75854      -11.10471
H          9.34364        7.32462      -10.27829
H          7.93261        6.48974      -10.93393
H          8.50631        3.59015      -10.01268
H          6.98069        4.47123       -9.92933
H          7.62894        3.72599       -8.46758
H          9.76457        7.48086       -7.58122
H         10.99373        7.21225       -8.84098
H         12.08096        7.42029       -6.83329
H         10.66739        3.58424       -9.31683
H         11.92747        4.44061       -8.36717
H         11.34207        5.09621       -9.89725
