79

C          7.79472        3.37246       -1.56704
C          6.70429        2.31045       -1.40237
C          7.21617        0.88875       -1.67512
C          6.11715       -0.15422       -1.57310
O          6.68754       -1.45779       -1.81582
C          5.73019       -2.50156       -1.83763
C          6.50422       -3.77221       -2.20113
N          7.67605       -3.84003       -1.29950
C          7.91035       -5.00798       -0.80448
C          6.98722       -6.04321       -1.34330
C          5.82304       -5.13829       -1.92654
C          4.95579       -5.69592       -3.06196
C          3.85689       -4.74850       -3.55872
C          2.87449       -5.40029       -4.55188
C          1.75971       -4.39700       -4.90238
C          0.58381       -4.97749       -5.71266
C         -0.56067       -4.00871       -5.82040
C         -0.92411       -3.27774       -6.89040
C         -0.22602       -3.31455       -8.22497
C         -2.10305       -2.34230       -6.81781
C          3.58811       -5.93570       -5.80230
C          7.78216       -7.09646       -2.25400
C          8.35337       -6.40821       -3.52146
C          9.08515       -7.30584       -4.55540
C          8.14196       -7.79146       -5.66742
C         10.27922       -6.55098       -5.15944
C          8.94158       -7.66617       -1.39352
O          9.96790       -6.71745       -1.07815
C          6.85929       -8.29564       -2.54313
H          7.40837        4.37561       -1.34347
H          8.18561        3.38831       -2.59510
H          8.64274        3.18511       -0.89173
H          5.86623        2.53629       -2.08289
H          6.29023        2.36052       -0.38148
H          8.01753        0.63913       -0.95966
H          7.66210        0.83732       -2.68182
H          5.32471        0.03349       -2.32122
H          5.64575       -0.14418       -0.57235
H          4.94130       -2.31286       -2.58512
H          5.24373       -2.62268       -0.84848
H          6.88059       -3.67750       -3.23294
H          8.17781       -2.97545       -1.07604
H          8.72160       -5.16083       -0.09457
H          6.60236       -6.64558       -0.50514
H          5.15313       -4.96651       -1.06456
H          4.47888       -6.61878       -2.69684
H          5.58447       -5.98713       -3.91304
H          4.31053       -3.87152       -4.05403
H          3.28189       -4.36142       -2.69991
H          2.40113       -6.25675       -4.03491
H          2.18980       -3.54613       -5.45970
H          1.36096       -3.97255       -3.96516
H          0.23162       -5.89725       -5.21308
H          0.92845       -5.28435       -6.71025
H         -1.14588       -3.87859       -4.90281
H          0.62513       -4.00504       -8.25438
H          0.14444       -2.31182       -8.49311
H         -0.92709       -3.60641       -9.02327
H         -2.56339       -2.34169       -5.82179
H         -2.87491       -2.62324       -7.55271
H         -1.80609       -1.30921       -7.06177
H          4.10957       -5.12403       -6.33495
H          2.87638       -6.38634       -6.50508
H          4.32871       -6.71214       -5.56408
H          9.05152       -5.62535       -3.18303
H          7.55027       -5.87765       -4.05176
H          9.48707       -8.19638       -4.04109
H          7.73784       -6.93595       -6.23142
H          7.29061       -8.36576       -5.28040
H          8.67486       -8.43428       -6.38105
H          9.94777       -5.64035       -5.68246
H         10.81503       -7.17313       -5.88910
H         11.00313       -6.24498       -4.38874
H          9.37303       -8.53873       -1.90599
H          8.54625       -8.02671       -0.43064
H         10.64945       -6.74587       -1.76703
H          6.03208       -8.04838       -3.21366
H          6.43162       -8.69401       -1.61157
H          7.43000       -9.10779       -3.01200
