63

C          0.71077       -0.51002       -0.44900
C          2.22634       -0.32734       -0.33753
C          2.74281       -0.38969        1.10471
C          4.26174       -0.22770        1.22023
C          4.78172       -0.26714        2.66139
C          6.30712       -0.16362        2.76183
C          6.83623       -0.16092        4.20050
C          8.36639       -0.15672        4.28378
C          8.90951       -0.10300        5.71625
C         10.43571       -0.22468        5.78617
C         11.00466       -0.08803        7.20352
C         12.51515       -0.34693        7.25734
C         13.12301       -0.11910        8.65206
C         14.59037       -0.53210        8.64039
N         15.37917       -0.11596        9.89209
C         15.02188       -0.88855       11.16254
C         14.76456       -2.42904       11.07773
F         13.59241       -2.68851       10.44909
F         15.77476       -3.03344       10.39643
F         16.01887       -0.70394       12.05829
F         13.90683       -0.30020       11.64848
C         16.88881        0.16292        9.58283
C         17.34659        1.31202       10.48863
O         16.25720        2.24186       10.50420
C         17.81090       -1.03938        9.55825
H          0.37373       -0.45947       -1.49368
H          0.17198        0.26903        0.11118
H          0.39430       -1.48350       -0.04494
H          2.51514        0.63955       -0.78400
H          2.73613       -1.09986       -0.93830
H          2.44327       -1.35212        1.55672
H          2.24304        0.39196        1.70434
H          4.56449        0.72498        0.75056
H          4.75645       -1.02197        0.63319
H          4.44834       -1.20236        3.14492
H          4.31862        0.55208        3.23920
H          6.64630        0.75331        2.24823
H          6.76315       -1.00367        2.20831
H          6.44690       -1.04530        4.73521
H          6.43450        0.71679        4.73665
H          8.76289        0.70147        3.71304
H          8.75675       -1.05869        3.77995
H          8.45407       -0.91333        6.31211
H          8.59054        0.83980        6.19406
H         10.89547        0.54048        5.13668
H         10.73817       -1.19932        5.36467
H         10.49154       -0.79373        7.87908
H         10.78677        0.92168        7.59190
H         13.02769        0.30314        6.52761
H         12.71263       -1.38417        6.93623
H         12.55503       -0.68720        9.40064
H         13.03977        0.94785        8.92055
H         15.10858       -0.02279        7.81819
H         14.72788       -1.61042        8.50287
H         15.07570        0.85892       10.13788
H         14.72684       -2.81879       12.10849
H         16.80433        0.57835        8.56877
H         18.24526        1.75276       10.02705
H         17.60255        0.96946       11.50130
H         16.42316        2.95518       11.14032
H         17.94891       -1.49382       10.54534
H         18.79354       -0.69378        9.20864
H         17.46768       -1.80553        8.85449
