46

F          1.94882        2.03792        2.67772
C          1.81316        0.88404        1.90282
C          2.79879        0.94242        0.73812
N          4.19797        0.99709        1.18208
C          4.92680        2.09846        1.31094
C          4.42616        3.46916        0.96758
C          5.52117        4.53427        0.89879
C          4.96343        5.95170        0.65206
N          6.01623        6.89053        1.03346
C          5.56582        8.24725        1.37426
C          6.76450        9.11941        1.70710
O          7.60322        9.13452        0.54500
O          6.20273        4.52854        2.14028
S          6.50469        1.83365        1.93479
C          6.33517       -0.00120        1.69397
C          4.82444       -0.21903        1.74632
C          6.96658       -0.46000        0.37425
C          8.45920       -0.16777        0.17523
C          9.36452       -0.93485        1.16171
F          9.07242       -2.25102        1.23332
F         10.66344       -0.81508        0.79625
F          9.24540       -0.41671        2.42052
O          8.74157       -0.53664       -1.15895
H          0.78643        0.84120        1.51013
H          1.98407        0.01645        2.55800
H          2.58834        1.82046        0.11712
H          2.67431        0.04750        0.11057
H          3.68871        3.74904        1.74033
H          3.88488        3.42421        0.00815
H          6.21991        4.27504        0.07379
H          4.10342        6.12039        1.32029
H          4.60673        6.06112       -0.38989
H          6.72292        6.97270        0.29746
H          4.90261        8.19284        2.25099
H          4.99758        8.71582        0.54754
H          7.30384        8.70109        2.57609
H          6.41464       10.13410        1.96404
H          8.38764        9.67256        0.72848
H          6.54082        5.46535        2.19828
H          6.81503       -0.46887        2.56123
H          4.47173       -0.34470        2.78307
H          4.51277       -1.09400        1.15942
H          6.45098        0.01313       -0.47565
H          6.81367       -1.54655        0.27511
H          8.67048        0.90477        0.35533
H          9.68400       -0.38199       -1.34068
