69

O          5.78889       -6.28548        0.69181
C          5.48221       -5.49797       -0.46914
C          4.42863       -4.46969       -0.08236
O          4.76289       -3.70379        1.08130
C          5.85744       -2.81305        0.93419
C          6.09451       -2.14598        2.27797
N          6.66182       -3.04764        3.29805
C          6.54249       -4.38179        3.29680
N          7.18070       -4.82966        4.37982
C          7.73330       -3.79269        5.11883
C          7.39161       -2.64081        4.42704
C          7.70317       -1.19539        4.67280
C          6.51319       -0.25038        4.97017
P          5.38209       -0.84091        6.26939
O          6.04302       -1.48601        7.42517
O          4.52434        0.42432        6.74234
C          3.66762        1.21117        5.86303
C          2.70844        2.00108        6.72822
O          4.40196       -1.78523        5.39452
C          3.51381       -2.73522        6.07039
C          2.15979       -2.13034        6.39294
C          8.52758       -4.11135        6.37768
C          7.59315       -4.31102        7.61893
C          6.27004       -5.09905        7.52076
C          6.40654       -6.62065        7.35058
C          5.44777       -4.79911        8.78588
C          9.36792       -5.38935        6.12973
O         10.16684       -5.21050        4.95837
C          9.51610       -2.98113        6.73823
H          6.27424       -7.07420        0.40570
H          5.06289       -6.11776       -1.27956
H          6.39561       -5.01487       -0.86105
H          3.49308       -4.97719        0.18714
H          4.23266       -3.80622       -0.94523
H          5.62972       -2.02292        0.19356
H          6.77608       -3.33008        0.59861
H          5.14678       -1.74627        2.66696
H          6.80122       -1.31735        2.14425
H          6.04002       -4.98424        2.54205
H          7.27438       -5.81262        4.61573
H          8.25843       -0.79461        3.80829
H          8.39591       -1.14818        5.51512
H          5.92095       -0.02292        4.07280
H          6.91734        0.70763        5.32902
H          3.13401        0.53520        5.17792
H          4.30706        1.88260        5.26731
H          2.06350        1.33363        7.31425
H          2.06855        2.63012        6.09406
H          3.25426        2.65342        7.42161
H          4.01775       -3.09502        6.97743
H          3.42044       -3.57225        5.36504
H          2.24429       -1.33277        7.14209
H          1.50519       -2.90990        6.80733
H          1.67553       -1.72763        5.49348
H          7.32446       -3.29984        7.94892
H          8.21518       -4.75011        8.41883
H          5.70120       -4.70166        6.66201
H          7.04939       -7.05099        8.13346
H          6.83183       -6.92953        6.38327
H          5.42434       -7.10743        7.42767
H          5.95804       -5.17858        9.68438
H          4.46105       -5.28184        8.74189
H          5.30400       -3.71809        8.91630
H          8.73244       -6.28805        6.03220
H          9.99021       -5.54456        7.02624
H         10.87204       -5.87505        4.95776
H          8.98794       -2.09262        7.10396
H         10.16826       -2.71788        5.89678
H         10.15676       -3.32502        7.56152
