117

C          6.29070       -2.55508       -2.76351
C          7.05872       -1.23101       -2.74838
C          6.55778       -0.25267       -1.68011
C          7.32727        1.07215       -1.64565
C          6.81171        2.04646       -0.58167
C          7.59166        3.36444       -0.51900
C          7.04189        4.32946        0.53637
C          7.85442        5.62795        0.62518
N          7.32403        6.56960        1.62538
C          6.43630        7.53849        1.33120
S          5.76976        8.58590        2.46299
S          6.04277        7.61950       -0.42699
C          4.86498        8.99019       -0.45687
C          3.45462        8.56115       -0.01480
C          2.69986        9.78879        0.47635
N          1.32031        9.52700        1.09812
C          1.42721        8.49145        2.24502
O          1.31840        7.26441        1.62194
C          0.31890        7.35552        0.57077
C          0.38360        8.83347        0.10635
C         -1.07116        6.92630        1.03656
C         -1.04734        5.50574        1.61037
C         -2.35997        5.00344        2.21424
C         -2.60791        5.25277        3.75562
C         -2.73204        6.70976        4.35404
C         -3.87684        7.70822        3.91213
C         -5.41068        7.36852        4.10814
C         -6.02458        7.05709        5.53297
C         -5.94415        8.10464        6.71762
C         -6.56131        9.53909        6.51598
F         -7.81010        9.47009        6.03260
F         -6.58584       10.15780        7.70897
F         -5.80561       10.27647        5.67537
F         -6.61355        7.52919        7.74669
F         -4.64498        8.26403        7.08437
F         -7.33873        6.80878        5.30347
F         -5.44929        5.91925        5.99810
F         -6.07938        8.44179        3.60369
F         -5.69290        6.29425        3.33263
F         -3.62012        8.86877        4.57699
F         -3.72671        7.95459        2.58360
F         -2.79770        6.57213        5.69756
F         -1.55589        7.36724        4.07102
F         -3.71573        4.56703        4.12244
F         -1.53386        4.71057        4.40738
F         -3.44547        5.46479        1.51712
F         -2.37430        3.63424        2.11091
C          0.81794       10.85983        1.60239
C         -0.52086       10.81502        2.35234
O         -1.43148       10.05263        2.09114
O         -0.51896       11.76506        3.28485
C         -1.74949       11.91779        4.09578
C         -1.55904       11.25266        5.44358
C          7.82506        6.38298        2.99879
C          9.12542        7.15301        3.25847
C          9.72447        6.82558        4.62999
C         11.07091        7.51424        4.88053
C         11.71293        7.12579        6.21651
C         13.08098        7.77345        6.45436
C         13.73141        7.36081        7.78000
C         15.10656        7.99420        8.00635
H          6.67235       -3.23304       -3.53894
H          5.22030       -2.39465       -2.96145
H          6.37279       -3.07596       -1.79797
H          6.98911       -0.75229       -3.73983
H          8.13134       -1.42856       -2.58410
H          6.61898       -0.73506       -0.68842
H          5.48524       -0.04881       -1.84857
H          7.27465        1.55260       -2.63848
H          8.39724        0.86756       -1.46610
H          6.84709        1.55789        0.40777
H          5.74580        2.26373       -0.77261
H          7.57174        3.85261       -1.50880
H          8.65375        3.15050       -0.30728
H          7.03609        3.83711        1.52261
H          5.99351        4.57807        0.30555
H          7.90333        6.12866       -0.35319
H          8.89574        5.41142        0.90673
H          4.88332        9.35781       -1.49254
H          5.26811        9.76659        0.21011
H          3.55822        7.83984        0.80301
H          2.94000        8.05856       -0.84642
H          2.52371       10.51498       -0.33085
H          3.29114       10.27514        1.26544
H          0.60560        8.71354        2.94525
H          2.40911        8.57899        2.73066
H          0.68834        6.68136       -0.21590
H         -0.59501        9.31563        0.16604
H          0.80991        8.94857       -0.89432
H         -1.74796        6.97343        0.16939
H         -1.44926        7.65744        1.75799
H         -0.26292        5.40631        2.37230
H         -0.80782        4.78302        0.81597
H          0.71299       11.52546        0.73399
H          1.59235       11.27758        2.25561
H         -2.58447       11.48784        3.53010
H         -1.87120       13.00406        4.17858
H         -1.40107       10.17153        5.33770
H         -2.46773       11.39811        6.04411
H         -0.71438       11.69026        5.99071
H          7.98598        5.30284        3.13586
H          7.03691        6.70346        3.69185
H          8.92369        8.23232        3.17480
H          9.85934        6.90726        2.47250
H          9.85815        5.73253        4.71667
H          9.01088        7.10783        5.42309
H         10.93739        8.60915        4.83874
H         11.76398        7.26268        4.05834
H         11.82067        6.02742        6.25922
H         11.03145        7.39375        7.04303
H         12.97779        8.87262        6.42430
H         13.75773        7.51229        5.62126
H         13.82308        6.26158        7.80951
H         13.05905        7.62887        8.61286
H         15.81090        7.71581        7.20816
H         15.54500        7.67364        8.96125
H         15.04389        9.09254        8.02194
