41

C          8.13671       -5.13903       -5.34116
C          6.65665       -5.05831       -5.02617
O          6.21370       -3.65144       -4.96359
C          6.33275       -3.05002       -3.77749
O          6.72349       -3.51135       -2.72954
N          5.89804       -1.70654       -3.93878
C          5.83660       -0.75892       -2.93617
N          6.89064       -0.45333       -2.19316
C          8.26836       -0.87637       -2.55184
C          8.89486        0.01467       -3.64014
C         10.27833       -0.49098       -3.97948
C         10.44417       -1.54333       -4.89285
C         11.71621       -2.04591       -5.17249
C         12.83814       -1.50340       -4.53903
C         12.68287       -0.45517       -3.62876
C         11.40932        0.04600       -3.34952
C          6.75903        0.40150       -0.98809
C          6.32711       -0.39921        0.23840
N          4.65512       -0.12577       -2.80455
H          8.41920       -6.19392       -5.46108
H          8.74624       -4.71855       -4.53086
H          8.37108       -4.61813       -6.27863
H          6.40397       -5.53540       -4.07134
H          6.03674       -5.47964       -5.82548
H          5.36869       -1.51600       -4.78688
H          8.26655       -1.92799       -2.84794
H          8.85376       -0.82314       -1.62561
H          8.94023        1.05769       -3.29210
H          8.25371       -0.00363       -4.53507
H          9.57207       -1.96371       -5.40098
H         11.83421       -2.85610       -5.89299
H         13.83277       -1.89030       -4.76163
H         13.55531       -0.02133       -3.13917
H         11.29487        0.87300       -2.64448
H          6.08406        1.24673       -1.18970
H          7.74645        0.85357       -0.83475
H          5.33233       -0.84358        0.10457
H          6.29308        0.25979        1.11560
H          7.03759       -1.20947        0.44448
H          3.81537       -0.54979       -3.17896
H          4.54613        0.69587       -2.22355
