70

C          2.95195        3.26388       13.01121
C          3.47751        1.96290       12.39929
C          4.25319        2.17834       11.09465
C          4.75675        0.87524       10.46377
C          5.51685        1.10021        9.14936
C          5.94658       -0.21472        8.51904
O          6.56249        0.01626        7.20064
C          7.89248        0.11681        7.15714
O          8.66554       -0.01087        8.08793
C          8.34827        0.42170        5.71991
C          9.83855        0.59052        5.67935
N         10.24519        1.85208        5.58915
N         11.55320        2.07163        5.61494
C         12.52710        1.15453        5.75913
C         12.11140       -0.17425        5.87241
C         10.76150       -0.50025        5.79578
C         10.32104       -1.92712        5.72960
C         10.14808       -2.37434        4.24632
C         11.46061       -2.48448        3.46048
C         11.26701       -2.73233        1.95593
C         10.70791       -1.51397        1.20874
C         10.64310       -1.68353       -0.30790
O         11.92810       -2.00704       -0.89492
C         12.77199       -0.95295       -1.11735
O         12.51973        0.19420       -0.79379
C         13.99905       -1.42551       -1.80438
C         14.94619       -0.56532       -2.19513
C         13.95064        1.60923        5.73039
C         14.74322        1.21281        4.44284
C         14.11778        1.81241        3.16400
F         14.01569        3.17179        3.27328
F         14.84081        1.53373        2.07786
F         12.85549        1.33075        2.97237
O         16.09455        1.56216        4.56969
H          2.40381        3.07465       13.94395
H          2.26688        3.78135       12.32343
H          3.77301        3.95829       13.24434
H          2.63367        1.27837       12.20913
H          4.12662        1.44714       13.12686
H          5.10941        2.84916       11.28429
H          3.60868        2.70702       10.37069
H          3.89798        0.20646       10.28030
H          5.40746        0.34668       11.18123
H          6.40602        1.72476        9.33284
H          4.87819        1.64627        8.43677
H          5.08655       -0.85805        8.29441
H          6.66476       -0.76015        9.14468
H          7.86597        1.34808        5.38297
H          8.00257       -0.38448        5.05800
H         11.80024        3.05738        5.49947
H         12.86143       -0.95489        6.00087
H          9.37638       -2.06329        6.27060
H         11.06915       -2.56612        6.22041
H          9.45961       -1.67947        3.73981
H          9.64095       -3.35065        4.25974
H         12.06857       -3.29400        3.89578
H         12.05170       -1.55806        3.57226
H         10.61407       -3.60766        1.80003
H         12.24073       -2.99963        1.51978
H         11.31455       -0.62372        1.43767
H          9.67994       -1.28662        1.53816
H         10.25969       -0.76686       -0.77651
H         10.00347       -2.53180       -0.58699
H         14.07422       -2.49722       -1.99265
H         14.83572        0.50403       -2.00615
H         15.84074       -0.90323       -2.71699
H         14.49282        1.15187        6.56965
H         14.00719        2.70026        5.86265
H         14.72050        0.11941        4.31487
H         16.20021        2.52834        4.51482
