68

C          1.38456       -0.64478        1.70802
C          2.89227       -0.43280        1.55239
C          3.34149       -0.34064        0.08976
C          4.85119       -0.13809       -0.07372
C          5.28497        0.02092       -1.53317
C          6.81104        0.20665       -1.68905
C          7.21921        0.47965       -3.11890
C          7.61424       -0.62617       -3.85795
C          7.92890       -0.60226       -5.23617
C          8.20396       -1.87061       -5.97982
C          6.87848       -2.47532       -6.52792
O          6.29063       -1.49010       -7.38719
C          4.91551       -1.17537       -7.10511
C          3.95779       -2.28967       -7.45347
C          3.75087       -2.64311       -8.79614
C          2.90331       -3.69933       -9.12770
C          2.24972       -4.41708       -8.11929
C          2.44506       -4.07034       -6.78093
C          3.29638       -3.01110       -6.45201
C          7.12218       -3.77803       -7.28234
C          7.85594        0.61308       -5.89824
C          7.46289        1.77981       -5.22144
C          7.13442        1.74975       -3.80238
C          6.74762        2.98537       -3.20757
C          6.48264        3.28809       -1.75689
C          7.77769        3.53777       -0.93503
C          8.50220        4.81527       -1.33949
Br        10.07296        5.10768       -0.21089
N          6.65812        4.07908       -4.00014
C          6.94871        4.13476       -5.33703
C          7.36574        2.99595       -5.95255
H          1.09568       -0.69515        2.76607
H          1.06071       -1.58138        1.23107
H          0.81423        0.17561        1.24764
H          3.43444       -1.25627        2.04677
H          3.19327        0.48709        2.08194
H          2.80521        0.48989       -0.40344
H          3.03588       -1.25615       -0.44601
H          5.39045       -0.98772        0.37885
H          5.16483        0.75286        0.50084
H          4.74764        0.87026       -1.99046
H          4.97917       -0.86189       -2.11829
H          7.30720       -0.72192       -1.37288
H          7.17492        0.97296       -0.99435
H          7.66643       -1.58664       -3.33955
H          8.68773       -2.61118       -5.32693
H          8.87048       -1.68169       -6.83375
H          6.20510       -2.66331       -5.67151
H          4.71207       -0.28130       -7.71282
H          4.80417       -0.89827       -6.03945
H          4.26581       -2.08842       -9.58320
H          2.74600       -3.96162      -10.17477
H          1.58324       -5.24007       -8.37966
H          1.93329       -4.62348       -5.99249
H          3.44320       -2.73722       -5.40389
H          7.75049       -3.59528       -8.16486
H          6.16819       -4.20078       -7.62025
H          7.62340       -4.51820       -6.64263
H          8.07615        0.66950       -6.96411
H          5.90351        2.48587       -1.29299
H          5.84442        4.18528       -1.69940
H          8.46097        2.68231       -1.03332
H          7.49160        3.59796        0.12475
H          7.87506        5.70724       -1.21163
H          8.88951        4.78285       -2.36486
H          6.36209        4.94210       -3.54660
H          6.82613        5.10074       -5.82061
H          7.61215        3.00994       -7.01318
