118

C         19.10862      -12.91003       -1.48068
C         18.51335      -11.50859       -1.32091
C         19.05625      -10.75237       -0.10333
C         18.46509       -9.34945        0.06891
C         19.00841       -8.60108        1.29025
C         18.42161       -7.19727        1.47113
C         18.97061       -6.46149        2.69755
C         18.39616       -5.05446        2.89209
C         18.95682       -4.33662        4.12402
C         18.40166       -2.92417        4.33444
C         18.97865       -2.22665        5.57062
C         18.45137       -0.80538        5.79365
C         19.04369       -0.13125        7.03566
C         18.55484        1.30262        7.26615
C         19.16487        1.95271        8.51267
C         18.75313        3.41377        8.72049
C         19.36474        4.04296        9.97815
C         19.04535        5.53642       10.12256
C         19.50800        6.17587       11.44029
C         21.03820        6.09522       11.65376
C         21.49226        6.79442       12.88386
N         21.57160        8.17758       13.01336
C         22.00604        8.44745       14.27007
N         22.26020        9.67206       14.77054
C         21.95081       10.89128       14.00161
O         20.63429       10.92470       13.53145
C         19.65005       11.16437       14.57007
C         18.25736       11.08599       13.97614
C         17.18128       11.38857       15.02734
C         15.75211       11.21943       14.50223
C         14.68520       11.46245       15.57437
C         13.25048       11.37760       15.04500
C         12.18481       11.60019       16.12301
C         10.75335       11.60301       15.57792
C          9.68265       11.79744       16.65758
C          8.26292       11.88466       16.09235
N         22.17677        7.25407       14.86445
N         21.85308        6.22336       14.00455
C         22.45738        6.96073       16.27099
C         21.44785        7.61889       17.22092
O         20.16254        7.45632       16.67503
C         19.11530        8.03155       17.47477
C         17.80305        7.83833       16.74177
H         18.69882      -13.42591       -2.36009
H         18.89765      -13.53600       -0.60057
H         20.20179      -12.86858       -1.59961
H         17.41528      -11.58143       -1.24175
H         18.71033      -10.91811       -2.23186
H         20.15553      -10.67792       -0.18239
H         18.86122      -11.34465        0.80848
H         17.36586       -9.42388        0.14597
H         18.66284       -8.75568       -0.84109
H         20.10774       -8.52802        1.21269
H         18.81134       -9.19701        2.19903
H         17.32223       -7.26793        1.54872
H         18.62115       -6.59810        0.56512
H         20.07042       -6.39639        2.61941
H         18.77011       -7.06344        3.60163
H         17.29643       -5.11554        2.97236
H         18.59897       -4.44859        1.99129
H         20.05716       -4.28475        4.04334
H         18.75133       -4.94486        5.02275
H         17.30167       -2.97098        4.41965
H         18.60866       -2.31237        3.43864
H         20.07956       -2.19497        5.48736
H         18.76394       -2.83804        6.46504
H         17.35075       -0.83039        5.87871
H         18.67111       -0.19007        4.90331
H         20.14518       -0.12750        6.95414
H         18.81158       -0.74258        7.92568
H         17.45397        1.30886        7.34946
H         18.79390        1.91627        6.37972
H         20.26597        1.89524        8.44716
H         18.88614        1.36314        9.40386
H         17.65304        3.48618        8.77429
H         19.05147        4.00408        7.83631
H         20.45740        3.88949        9.94998
H         19.00428        3.50177       10.87092
H         17.95599        5.68259       10.04414
H         19.48438        6.08963        9.27412
H         19.01250        5.68583       12.29373
H         19.18912        7.23174       11.45899
H         21.56346        6.51967       10.78216
H         21.35976        5.05023       11.74664
H         21.20242        8.88241       12.37814
H         22.38730        9.74642       15.77372
H         22.59972       10.93057       13.11445
H         22.19368       11.73861       14.66381
H         19.84464       12.16038       15.00787
H         19.76561       10.40769       15.36737
H         18.10159       10.07696       13.55862
H         18.17946       11.79332       13.13591
H         17.31297       12.41863       15.40004
H         17.32490       10.73089       15.90223
H         15.63150       10.20227       14.08937
H         15.58980       11.91017       13.65707
H         14.84492       12.45611       16.02867
H         14.81907       10.73255       16.39292
H         13.09086       10.39327       14.57052
H         13.11754       12.12351       14.24188
H         12.37913       12.55942       16.63450
H         12.28162       10.82040       16.89921
H         10.56138       10.65747       15.04034
H         10.65610       12.40277       14.82243
H          9.90754       12.71369       17.22965
H          9.74320       10.96772       17.38231
H          8.16028       12.73568       15.40266
H          7.51872       12.01327       16.89012
H          7.99691       10.97446       15.53430
H         23.48459        7.26594       16.52173
H         22.39557        5.86907       16.33583
H         21.67217        8.69689       17.38520
H         21.55403        7.13543       18.21100
H         19.32984        9.10653       17.63742
H         19.09634        7.54317       18.46585
H         17.83007        8.31722       15.75349
H         16.98059        8.28496       17.31602
H         17.58614        6.77138       16.60455
