84

C          0.40968       -0.06588       -0.14646
C          1.92045        0.08975        0.04661
C          2.57436        1.00680       -0.99290
C          4.08887        1.15881       -0.81832
C          4.73850        2.06849       -1.86613
C          6.25663        2.20539       -1.71009
C          6.90271        3.10236       -2.77107
C          8.42750        3.19819       -2.65372
C          9.06999        4.07543       -3.73354
C         10.60198        4.07385       -3.69839
C         11.23861        4.92941       -4.79899
C         12.76702        4.82479       -4.85220
C         13.39259        5.64985       -5.98201
C         14.90544        5.44312       -6.12959
C         15.49401        6.22267       -7.31259
C         17.00497        6.02659       -7.55416
C         17.40325        4.56215       -7.81441
N         16.83714        4.12565       -9.14432
C         17.37163        5.01285      -10.34519
C         17.05321        6.47406       -9.95267
N         17.50015        6.89445       -8.63537
C         18.90654        7.31124       -8.51709
C         19.12943        8.40156       -7.46563
C         20.60679        8.79328       -7.37221
C         20.87449        9.90899       -6.34921
N         22.28591       10.22834       -6.23708
C         22.97862       11.08536       -7.06865
C         24.32189       10.99915       -6.75382
C         24.45127       10.04946       -5.70161
C         23.18296        9.58512       -5.40787
N         18.73025        4.66920      -10.54605
H         -0.02847       -0.72796        0.61317
H          0.17491       -0.49219       -1.13340
H         -0.10455        0.90444       -0.07681
H          2.40119       -0.90260        0.00756
H          2.12493        0.48318        1.05695
H          2.09935        2.00306       -0.94903
H          2.36161        0.61796       -2.00481
H          4.56182        0.16148       -0.85868
H          4.30332        1.55216        0.19115
H          4.27423        3.06934       -1.81899
H          4.51140        1.67986       -2.87482
H          6.71777        1.20264       -1.75255
H          6.48824        2.60030       -0.70524
H          6.46486        4.11429       -2.71117
H          6.64193        2.72152       -3.77451
H          8.85774        2.18241       -2.70870
H          8.69776        3.58554       -1.65586
H          8.69920        5.11069       -3.63531
H          8.73394        3.72888       -4.72703
H         10.96220        3.03403       -3.79355
H         10.95096        4.42409       -2.71142
H         10.94502        5.98456       -4.66280
H         10.82420        4.62536       -5.77670
H         13.04955        3.76408       -4.97753
H         13.19563        5.13879       -3.88498
H         13.18171        6.72075       -5.82250
H         12.90051        5.38565       -6.93559
H         15.09145        4.35947       -6.24318
H         15.41859        5.73802       -5.19869
H         15.33881        7.30195       -7.16955
H         14.91166        5.97537       -8.22057
H         17.52690        6.32215       -6.63202
H         17.02837        3.87017       -7.05070
H         18.49109        4.44197       -7.89259
H         15.80830        4.16458       -9.11100
H         17.11407        3.15648       -9.34061
H         16.74360        4.69641      -11.19111
H         15.96140        6.60899      -10.02605
H         17.49609        7.12845      -10.71559
H         19.21012        7.70860       -9.49869
H         19.59081        6.46077       -8.29831
H         18.78004        8.05578       -6.47789
H         18.50736        9.27161       -7.72788
H         20.97366        9.12609       -8.35679
H         21.21466        7.91643       -7.09568
H         20.50941        9.61169       -5.35414
H         20.33089       10.82423       -6.62920
H         22.45497       11.69246       -7.80044
H         25.11914       11.57268       -7.21515
H         25.36684        9.75441       -5.19916
H         22.83912        8.86988       -4.66716
H         19.40682        5.39297      -10.32834
H         18.93862        4.21989      -11.43104
