43

O          4.84075       -2.32000        2.05270
C          4.21237       -1.04249        1.89017
C          2.70744       -1.30359        1.94076
C          2.26394       -2.12346        0.70192
N          0.80710       -2.29899        0.70504
N         -0.04974       -1.31353        0.75128
N         -1.27285       -1.81416        0.74778
C         -1.17444       -3.15455        0.70137
N          0.13519       -3.49010        0.66817
C          0.75925       -4.77770        0.59052
C          1.05546       -5.32329       -0.66046
C          1.61810       -6.59538       -0.73293
C          1.86635       -7.30007        0.45017
C          1.56611       -6.75972        1.70187
C          1.00275       -5.47669        1.79668
O          0.66042       -4.83291        2.92673
C          0.82817       -5.50044        4.18956
C         -2.31469       -4.11514        0.61906
C         -3.38956       -3.73634        1.64675
O         -2.79176       -3.84464        2.93645
C         -2.87621       -4.14115       -0.81843
O          2.33550       -1.97367        3.12952
H          5.77397       -2.19241        2.27994
H          4.49832       -0.56746        0.93498
H          4.47037       -0.35835        2.71423
H          2.17476       -0.34055        1.92928
H          2.71136       -3.12470        0.70811
H          2.52671       -1.61506       -0.23654
H          0.83697       -4.74788       -1.56102
H          1.85456       -7.03407       -1.70077
H          2.30150       -8.29854        0.40074
H          1.76607       -7.33631        2.60322
H          0.47660       -4.78467        4.93784
H          1.88645       -5.73988        4.37154
H          0.21809       -6.41414        4.23417
H         -1.92884       -5.11215        0.88259
H         -4.23720       -4.43388        1.52941
H         -3.75171       -2.71269        1.44999
H         -3.40498       -3.48429        3.59547
H         -3.26055       -3.15471       -1.10948
H         -3.69698       -4.86665       -0.88032
H         -2.10633       -4.44029       -1.54096
H          3.05850       -2.59810        3.32829
