68

C          0.79535       -0.46889       -0.42284
C          2.29243       -0.23383       -0.63936
C          2.75100        1.17229       -0.23514
C          4.23783        1.42568       -0.50019
C          4.72468        2.80167       -0.03057
C          6.19535        3.05454       -0.38197
C          6.71554        4.38009        0.14637
O          8.05345        4.56291       -0.35744
C          8.69941        5.70871        0.12973
C         10.02210        5.78087       -0.65369
C         10.94707        4.56289       -0.44565
C         12.10382        5.05078        0.47072
C         11.93381        6.52152        0.44463
N         10.86425        6.91570       -0.16354
C         10.48627        8.32307       -0.39457
O         10.38853        8.46962       -1.77207
C          9.71248        9.68717       -2.18620
C          9.56881        9.65217       -3.69617
C          8.92594       10.92767       -4.25601
C          8.73739       10.87633       -5.77744
C          8.12982       12.15747       -6.35208
C         13.52630        4.62182        0.03272
C         13.71447        3.10248        0.08407
C         15.11046        2.66727       -0.37994
N         15.19473        1.20779       -0.40280
H          0.50378       -1.48873       -0.70802
H          0.19112        0.22855       -1.02194
H          0.51555       -0.32605        0.63155
H          2.54295       -0.40653       -1.69993
H          2.87060       -0.97990       -0.06827
H          2.53508        1.33069        0.83623
H          2.14990        1.92282       -0.77833
H          4.43830        1.31811       -1.58048
H          4.83723        0.64294       -0.00332
H          4.57944        2.88546        1.06051
H          4.09728        3.58889       -0.48314
H          6.32463        3.04198       -1.47621
H          6.82359        2.24212        0.01781
H          6.73297        4.39147        1.25306
H          6.08268        5.22315       -0.19094
H          8.89855        5.63926        1.22129
H          8.09411        6.62081       -0.04555
H          9.79558        5.97020       -1.71040
H         11.35511        4.23074       -1.40922
H         10.38788        3.72348       -0.02126
H         11.96523        4.71960        1.51846
H         12.62831        7.25455        0.86382
H         11.26654        8.95786        0.06677
H          9.52318        8.50834        0.12008
H         10.30826       10.55848       -1.85976
H          8.72694        9.73606       -1.68704
H          8.96672        8.77262       -3.97646
H         10.56606        9.50944       -4.14271
H          9.54907       11.80049       -3.99489
H          7.94712       11.09614       -3.77383
H          8.09722       10.01521       -6.03262
H          9.71175       10.68154       -6.25598
H          7.14656       12.37056       -5.90719
H          7.99113       12.07883       -7.43844
H          8.77543       13.02767       -6.16254
H         14.26903        5.11444        0.68125
H         13.70588        4.98920       -0.99195
H         12.97397        2.59084       -0.54946
H         13.54097        2.74764        1.11489
H         15.87686        3.16174        0.25155
H         15.27496        3.02668       -1.40843
H         15.26800        0.82643        0.54117
H         16.02235        0.89670       -0.91020
