81

C          1.30295       -2.86056        2.25176
C          0.34905       -2.04423        1.41986
C         -1.03428       -2.09023        1.64063
C         -1.91427       -1.32066        0.87230
C         -1.43747       -0.48011       -0.14611
C         -0.05187       -0.43817       -0.37368
C          0.82098       -1.20646        0.39357
C         -2.39103        0.39124       -0.93179
C         -2.33358        1.86197       -0.46872
N         -2.43025        1.88728        1.00659
C         -2.91442        2.90817        1.71017
N         -3.07302        2.80207        3.04790
N         -3.27959        4.03050        1.07569
C         -3.14473        4.19075       -0.38959
C         -3.40462        2.81371       -1.04328
C         -4.84808        2.28063       -0.85364
O         -5.24963        1.45947       -1.93899
C         -5.89936        2.01278       -3.03751
C         -6.37714        3.32808       -3.06003
C         -7.04680        3.84482       -4.17852
C         -7.58034        5.25383       -4.16322
C         -7.22450        3.00673       -5.28373
C         -6.75976        1.69256       -5.24583
C         -6.09265        1.15141       -4.13904
C         -5.61929       -0.29508       -4.19857
C         -4.08929       -0.39441       -4.34706
C         -6.15028       -1.18277       -3.05784
C         -4.01406        5.36519       -0.83420
C         -3.78691        5.77313       -2.28819
O         -4.37066        7.05870       -2.41242
C         -4.39928        7.56762       -3.72486
C         -4.88706        9.01546       -3.68226
C         -6.37577        9.30947       -3.26364
C         -6.91782        9.02140       -1.81032
C         -6.19420        9.74377       -0.63199
F         -6.99712        9.65828        0.46641
F         -5.02235        9.10813       -0.34093
F         -8.20467        9.47179       -1.82001
F         -6.95316        7.68039       -1.57484
F         -6.57465       10.64432       -3.46934
F         -7.17753        8.61470       -4.12152
F         -4.07188        9.77216       -2.88473
F         -4.77595        9.49619       -4.96095
H          0.78940       -3.68541        2.76119
H          1.78022       -2.23922        3.02537
H          2.10801       -3.28505        1.63755
H         -1.43382       -2.75279        2.41102
H         -2.99139       -1.40631        1.04013
H          0.34891        0.18890       -1.17369
H          1.89220       -1.16699        0.18621
H         -3.41536        0.00494       -0.84294
H         -2.13919        0.37935       -2.00129
H         -1.34021        2.25866       -0.74088
H         -2.10251        1.04420        1.48362
H         -2.75186        1.97525        3.53549
H         -3.25800        3.62043        3.61374
H         -3.72164        4.77548        1.60409
H         -2.09553        4.46417       -0.60010
H         -3.21937        2.90950       -2.12302
H         -5.55783        3.09944       -0.67547
H         -4.90301        1.62783        0.03089
H         -6.27147        3.97744       -2.19258
H         -7.19994        5.82422       -3.30730
H         -8.67874        5.25962       -4.09674
H         -7.31893        5.79442       -5.08397
H         -7.73844        3.37594       -6.17253
H         -6.91873        1.04690       -6.11232
H         -6.05099       -0.69583       -5.13030
H         -3.58071        0.01448       -3.46549
H         -3.74214        0.16174       -5.22831
H         -3.77770       -1.44254       -4.46063
H         -5.70171       -0.92422       -2.09055
H         -5.92266       -2.23752       -3.26692
H         -7.24020       -1.08755       -2.95926
H         -3.75720        6.24204       -0.21685
H         -5.08337        5.16817       -0.66690
H         -4.25582        5.05787       -2.98896
H         -2.70262        5.81821       -2.51906
H         -5.06129        6.98367       -4.38871
H         -3.39087        7.60562       -4.17798
H         -5.99418       10.80265       -0.85621
