43

C          2.58741       -0.87090       -0.70596
N          1.74817        0.27767       -0.33049
N          2.47309        1.18476        0.46563
C          2.16031        1.26766        1.78408
N          1.12086        0.56186        2.23538
C          0.50154        0.80488        3.55640
O          0.94668        2.08205        4.00086
C          2.34838        2.15236        4.00258
N          2.85635        2.06430        2.61422
C          3.93897        2.94052        2.15507
C          5.23010        2.19242        1.85137
C          5.76994        2.05558        0.48024
O          6.29462        3.02365        1.39901
C         -1.01569        0.77988        3.43549
C         -1.79901        0.84533        4.78630
N         -1.20601       -0.16924        5.67658
N         -1.70060        2.18984        5.32379
N         -3.23457        0.62401        4.61043
C          1.15413        0.97000       -1.48570
H          2.95211       -1.36911        0.20039
H          3.45058       -0.57662       -1.33368
H          1.97341       -1.58025       -1.27326
H          3.40290        1.48595        0.16203
H          0.63995        0.03744        1.50072
H          0.84203        0.03478        4.26954
H          2.79038        1.34773        4.61801
H          2.63033        3.13270        4.40377
H          4.13511        3.65284        2.96825
H          3.61515        3.53573        1.28566
H          5.51297        1.43924        2.59801
H          5.23058        2.49089       -0.37175
H          6.43906        1.22409        0.24107
H         -1.28122       -0.16571        2.93420
H         -1.34677        1.61044        2.79608
H         -1.66783       -0.10828        6.58683
H         -1.39326       -1.11591        5.33176
H         -0.74436        2.41400        5.59560
H         -2.30960        2.27245        6.13903
H         -3.44093       -0.28856        4.20545
H         -3.65155        1.34789        4.02274
H          0.53000        0.25247       -2.03176
H          1.91611        1.37354       -2.17788
H          0.52109        1.78937       -1.12776
