65

F          1.80726        0.59181       -0.54040
C          3.06826        0.75149        0.05312
C          4.15346        0.41575       -0.96498
C          4.02498        1.33480       -2.17263
N          5.19609        1.28311       -3.19176
C          4.82052        2.17187       -4.40505
C          3.75997        1.52139       -5.28261
O          4.15400        0.22792       -5.71043
C          4.33569       -0.61915       -4.59105
C          5.48909       -0.17462       -3.68370
C          6.89925       -0.32690       -4.29045
O          7.26739        0.80696       -5.04617
C          8.67643        0.82740       -5.36237
C          8.99304        2.09535       -6.13569
C          8.77108        3.39322       -5.35139
C          9.14651        4.65339       -6.13777
C          8.89325        5.94987       -5.36231
C          9.22572        7.21994       -6.15109
C          8.96053        8.51276       -5.37154
C          9.29449        9.77916       -6.16355
C          6.36705        1.83564       -2.52969
N          7.21687        1.20235       -1.79568
N          8.08100        2.17442       -1.28847
C          7.65319        3.32615       -1.75099
O          6.52985        3.18182       -2.55913
S          8.24300        4.92665       -1.52840
C          9.67768        4.57585       -0.43204
C         10.37134        5.90070       -0.12921
H          3.12608        0.07426        0.91684
H          3.13896        1.79353        0.40460
H          4.03945       -0.63924       -1.25239
H          5.13344        0.52688       -0.47651
H          3.98741        2.38959       -1.86593
H          3.11179        1.11705       -2.73504
H          5.75174        2.29944       -4.96352
H          4.47716        3.13043       -3.99917
H          3.65411        2.14280       -6.18218
H          2.76959        1.47997       -4.79046
H          4.58291       -1.61666       -4.97745
H          3.39381       -0.71338       -4.01592
H          5.47383       -0.79144       -2.77649
H          6.87697       -1.23969       -4.91684
H          7.62219       -0.49319       -3.47560
H          8.92331       -0.06784       -5.95997
H          9.24956        0.77778       -4.41688
H          8.39833        2.10477       -7.06381
H         10.04724        2.02838       -6.45047
H          9.35249        3.35701       -4.41283
H          7.71303        3.46970       -5.05076
H          8.57713        4.67448       -7.08317
H         10.20941        4.60042       -6.42918
H          9.48065        5.93592       -4.42745
H          7.83398        5.98460       -5.04746
H          8.64015        7.23303       -7.08713
H         10.28505        7.19102       -6.46081
H          9.54509        8.49823       -4.43546
H          7.90070        8.53896       -5.06463
H         10.35693        9.80469       -6.44713
H          9.08566       10.68628       -5.58052
H          8.70521        9.83744       -7.09038
H         10.33454        3.87246       -0.95860
H          9.29396        4.09098        0.47408
H         10.74680        6.38457       -1.04086
H         11.23127        5.70770        0.52548
H          9.70551        6.60218        0.39067
