79

N          6.45850       -0.23895       -6.17786
C          5.81226       -1.32383       -5.45168
C          5.74443       -1.22728       -3.91128
C          7.12060       -1.21388       -3.23728
C          7.09381       -1.21175       -1.69985
C          6.37972       -2.41634       -1.05298
C          6.88368       -3.77897       -1.52416
N          8.37441       -3.88727       -1.17629
C          9.04828       -5.18173       -1.62816
C          9.25142       -5.19184       -3.14304
C         10.16891       -4.06251       -3.65998
C         10.40803       -4.15472       -5.12830
C         10.06686       -3.24781       -6.05151
F          9.44577       -2.10419       -5.74816
F         10.29966       -3.35738       -7.34245
F         11.03707       -5.28402       -5.54022
C          8.17474       -6.31850       -1.08185
O          6.82731       -6.19632       -1.49712
C          6.18210       -5.02543       -0.96297
C          4.69961       -5.10092       -1.34204
C          3.73312       -4.57160       -0.27084
C          2.25777       -4.64350       -0.69389
C          1.67817       -6.06451       -0.73742
C          0.21404       -6.13330       -1.19805
C          0.00329       -5.88912       -2.69788
C         -1.45988       -6.02955       -3.13132
C         -1.66857       -5.95090       -4.64687
C         -3.13115       -6.12116       -5.07049
C         -3.34028       -6.12586       -6.58810
C         -4.80104       -6.32878       -7.00592
C         -5.00248       -6.35211       -8.52325
H          6.00892        0.66058       -6.00937
H          7.44864       -0.14569       -5.95764
H          6.32640       -2.26103       -5.72780
H          4.78543       -1.42009       -5.83595
H          5.14252       -2.08148       -3.55290
H          5.18704       -0.31982       -3.62174
H          7.68104       -0.32548       -3.56664
H          7.70474       -2.07352       -3.61598
H          6.59023       -0.30105       -1.34253
H          8.12673       -1.11670       -1.31344
H          5.30946       -2.37282       -1.29337
H          6.43997       -2.35028        0.04659
H          6.84265       -3.84093       -2.62019
H          8.46497       -3.80225       -0.15338
H          8.86105       -3.07242       -1.57572
H         10.02577       -5.19481       -1.11917
H          8.28575       -5.17535       -3.66845
H          9.70946       -6.16113       -3.38858
H         11.14178       -4.10488       -3.13813
H          9.74372       -3.06425       -3.46809
H          8.23935       -6.34281        0.02539
H          8.54467       -7.27988       -1.46146
H          6.28744       -5.04143        0.14434
H          4.49791       -6.16409       -1.53445
H          4.52853       -4.58266       -2.30126
H          3.97731       -3.52714       -0.01979
H          3.87957       -5.14787        0.65907
H          2.14208       -4.15160       -1.67477
H          1.66309       -4.04422        0.01403
H          1.76204       -6.50246        0.27147
H          2.28407       -6.70775       -1.39929
H         -0.38845       -5.41538       -0.61450
H         -0.18441       -7.12983       -0.94865
H          0.61972       -6.60983       -3.26510
H          0.36929       -4.88722       -2.98232
H         -2.06624       -5.25298       -2.63320
H         -1.85107       -6.99525       -2.76578
H         -1.05648       -6.72967       -5.13582
H         -1.28637       -4.98574       -5.02464
H         -3.73943       -5.31813       -4.61841
H         -3.52039       -7.06506       -4.64953
H         -2.72059       -6.92193       -7.03817
H         -2.96702       -5.17753       -7.01438
H         -5.42006       -5.53028       -6.56301
H         -5.17210       -7.27245       -6.57109
H         -4.68093       -5.40640       -8.98467
H         -6.05753       -6.50775       -8.78738
H         -4.42117       -7.16101       -8.99073
