59

C          5.62845       -0.50465       -5.69500
C          5.48169       -1.10851       -4.29434
C          6.60808       -0.65237       -3.37774
O          6.40543       -1.12347       -2.00308
C          6.91044       -2.32450       -1.68767
O          7.52946       -3.05664       -2.43848
C          6.61083       -2.64672       -0.22323
C          7.08268       -4.05687        0.13459
N          6.05780       -5.05420       -0.19031
C          6.65752       -6.37727       -0.33754
C          7.22427       -6.80670        1.00707
N          8.13675       -5.74048        1.56069
C          7.57761       -4.28406        1.59280
C          8.78198       -3.39029        1.94472
C          9.88873       -3.24890        0.89285
O         10.94865       -2.57186        1.52571
C         12.05827       -2.32851        0.65338
C         13.06113       -1.46434        1.40502
O         14.17529       -1.29933        0.55038
C         15.16960       -0.44292        1.10101
C          6.47835       -4.27383        2.70816
C          7.02419       -4.51982        4.12478
O          7.80436       -5.73986        4.16381
C          5.63715       -2.98804        2.76355
H          4.81690       -0.84346       -6.35095
H          6.57872       -0.79841       -6.16348
H          5.59416        0.59400       -5.66534
H          5.48817       -2.20759       -4.35525
H          4.51874       -0.81146       -3.85079
H          6.62920        0.44047       -3.27750
H          7.58656       -1.00902       -3.72677
H          5.53161       -2.52814       -0.05851
H          7.09192       -1.87077        0.38776
H          7.97584       -4.23174       -0.50588
H          5.58319       -4.79277       -1.05428
H          7.46037       -6.39619       -1.10576
H          5.89201       -7.10428       -0.63968
H          7.81691       -7.72752        0.93077
H          6.43041       -6.96369        1.74534
H          9.00631       -5.71510        1.01097
H          8.36309       -5.96704        2.55880
H          9.26107       -3.76252        2.86349
H          8.41493       -2.38482        2.19247
H          9.54782       -2.69380       -0.00127
H         10.24031       -4.24093        0.51881
H         11.72266       -1.81020       -0.26326
H         12.53079       -3.28281        0.35431
H         13.34998       -1.95827        2.35451
H         12.60172       -0.48897        1.66093
H         15.98651       -0.39553        0.37193
H         15.55935       -0.83798        2.05690
H         14.77496        0.57536        1.27149
H          5.77888       -5.08870        2.47027
H          6.16721       -4.61350        4.80885
H          7.63962       -3.66985        4.46346
H          8.16498       -5.87054        5.05480
H          6.24863       -2.07703        2.81492
H          5.00651       -3.00504        3.66243
H          4.96253       -2.91189        1.90608
