73

C          0.55893       -1.03688       -2.11590
C          1.88712       -0.74978       -1.41080
C          3.08217       -0.79062       -2.37740
C          4.38324       -0.47765       -1.66271
O          5.50135       -0.42994       -2.65044
C          6.15595       -1.54770       -2.86499
O          6.11476       -2.62151       -2.33524
N          7.08403       -1.28383       -4.04708
C          8.34895       -2.11483       -3.99445
C          9.27870       -1.73613       -5.16906
C         10.01556       -0.40950       -4.90808
C         10.89068        0.01572       -6.08486
O         11.77194        1.01319       -5.59320
C         12.45472        1.72213       -6.59973
C         13.18806        2.90669       -5.97269
C         12.33461        4.11988       -5.44877
C         11.34469        3.98304       -4.23036
C         11.95727        3.51514       -2.87356
F         11.05946        3.80747       -1.88771
F         12.14086        2.16536       -2.88206
F         10.85127        5.23816       -4.03090
F         10.29455        3.17900       -4.56781
F         13.22056        5.09540       -5.09460
F         11.58975        4.57042       -6.50030
F         14.00147        2.49342       -4.95377
F         13.98742        3.43348       -6.95338
N          8.58869       -1.72891       -6.46263
C          7.33395       -0.99778       -6.48300
C          6.32684       -1.41990       -5.39339
C          5.74264       -2.81945       -5.57702
C          4.62657       -2.73859       -6.64346
O          4.24157       -1.63166       -7.03653
N          4.10416       -3.91164       -7.09183
C          4.54916       -5.23526       -6.63543
C          5.67696       -5.85833       -7.46495
C          3.02596       -3.83598       -8.09809
C          3.51943       -3.79586       -9.54635
H         -0.27514       -1.01279       -1.40318
H          0.56222       -2.02862       -2.59063
H          0.35121       -0.29164       -2.89698
H          2.04492       -1.48124       -0.60189
H          1.84244        0.23964       -0.92747
H          2.93165       -0.06284       -3.19059
H          3.14734       -1.78896       -2.84162
H          4.64674       -1.22071       -0.89952
H          4.39610        0.52847       -1.22815
H          7.34446       -0.28730       -3.98323
H          8.03556       -3.16346       -4.03141
H          8.81732       -1.92761       -3.01920
H         10.03863       -2.53098       -5.21880
H         10.65889       -0.52668       -4.02313
H          9.32786        0.42142       -4.67109
H         10.27724        0.40925       -6.91488
H         11.45947       -0.84939       -6.48053
H         11.76807        2.10865       -7.37509
H         13.22928        1.10663       -7.09470
H         12.91195        4.01819       -2.65652
H          8.50299       -2.66285       -6.85750
H          6.84345       -1.11995       -7.45636
H          7.53846        0.08169       -6.37803
H          5.50722       -0.69122       -5.34603
H          5.31115       -3.20307       -4.64007
H          6.51702       -3.53964       -5.87600
H          3.66671       -5.89052       -6.65888
H          4.84347       -5.17088       -5.57852
H          5.37504       -6.01205       -8.50762
H          5.95479       -6.83511       -7.04606
H          6.57601       -5.22454       -7.46922
H          2.44929       -2.92848       -7.87948
H          2.37244       -4.70385       -7.93182
H          4.18423       -2.93775       -9.70896
H          2.66163       -3.68886      -10.22402
H          4.05255       -4.71290       -9.82830
