38

C          0.58126        0.99015        0.11907
C          1.89054        1.73559        0.16823
O          2.78566        1.12393       -0.85990
C          3.98967        1.62353       -0.98214
O          4.47255        2.53789       -0.31808
C          4.72500        0.92140       -2.13656
N          6.17254        1.18163       -2.11705
N          6.69831        2.25121       -1.48282
N          7.99340        2.27753       -1.62005
N          8.34173        1.24590       -2.37434
C          7.22724        0.55642       -2.69150
C          7.17913       -0.68319       -3.50548
C          8.16425       -1.75252       -2.96539
C          7.70427       -3.19790       -3.20297
C          6.96479       -3.91281       -2.00674
C          5.59823       -3.34842       -1.45546
C          4.31332       -3.38599       -2.36261
F          4.08726       -4.59765       -2.85869
F          3.26143       -2.99954       -1.61485
F          4.42467       -2.49890       -3.38932
F          5.30874       -4.04220       -0.33828
F          5.78720       -2.02414       -1.09705
F          6.75819       -5.20503       -2.34509
F          7.81880       -3.86562       -0.94263
F          6.90866       -3.29280       -4.31769
F          8.80774       -3.96786       -3.42407
H         -0.09858        1.42860        0.86220
H          0.71204       -0.07098        0.36509
H          0.10551        1.07534       -0.86583
H          2.40690        1.64325        1.13267
H          1.79599        2.79978       -0.08540
H          4.30821        1.28763       -3.08753
H          4.56770       -0.16132       -2.08111
H          6.03104        2.77673       -0.84421
H          7.44898       -0.42233       -4.54003
H          6.15286       -1.05938       -3.54651
H          8.35324       -1.62105       -1.89265
H          9.13463       -1.65098       -3.46632
