65

C          5.21389        4.21053       -5.41785
C          5.79732        3.28531       -4.34818
C          6.26582        1.93925       -4.90833
C          6.84659        0.99938       -3.84765
C          7.34014       -0.32883       -4.42720
C          7.91020       -1.28601       -3.37428
C          8.41097       -2.59681       -3.99618
C          8.95464       -3.55236       -2.94935
O          9.32934       -4.84139       -3.58935
C         10.56462       -4.97340       -4.01990
O         11.49302       -4.18129       -3.91021
C         10.78828       -6.32525       -4.71315
N         12.09774       -6.19846       -5.42298
C         12.01614       -5.68074       -6.88791
O         12.83736       -6.51668       -7.62652
C         13.85603       -7.00332       -6.74577
C         13.08328       -7.38179       -5.47257
I         11.97242       -9.22612       -5.81714
C         13.86516       -7.45511       -4.16422
C         14.99790       -8.50731       -4.24893
O         15.40731       -8.85507       -5.35989
N         15.49972       -8.96565       -3.07339
C         16.55818       -9.99429       -3.10000
C         16.11979      -11.33775       -2.50560
C         14.97339      -12.02645       -3.25338
C         14.59580      -13.37358       -2.63331
C         15.04340       -8.51441       -1.76068
H          4.89083        5.16814       -4.98795
H          4.34082        3.75347       -5.90645
H          5.95469        4.43055       -6.20098
H          5.04519        3.10902       -3.56104
H          6.64578        3.78444       -3.85058
H          7.02287        2.11654       -5.69261
H          5.41941        1.44056       -5.41269
H          6.08259        0.80169       -3.07581
H          7.68047        1.50380       -3.32900
H          8.11206       -0.12783       -5.19053
H          6.50983       -0.82725       -4.95693
H          7.13609       -1.50602       -2.62007
H          8.73642       -0.79160       -2.83618
H          9.20043       -2.37520       -4.73245
H          7.58683       -3.08907       -4.53662
H          8.19323       -3.84662       -2.21769
H          9.83975       -3.15819       -2.43487
H          9.98693       -6.58188       -5.41317
H         10.85450       -7.12654       -3.96442
H         12.54472       -5.41921       -4.87725
H         12.36277       -4.63283       -6.85751
H         10.98239       -5.74773       -7.24951
H         14.59697       -6.21196       -6.51509
H         14.36321       -7.84928       -7.20988
H         13.18255       -7.65321       -3.32657
H         14.33766       -6.47158       -3.97708
H         17.42211       -9.59795       -2.54327
H         16.85334      -10.11180       -4.14910
H         15.85063      -11.21515       -1.44263
H         17.00747      -11.99083       -2.51126
H         15.25859      -12.16489       -4.30885
H         14.08852      -11.36702       -3.26333
H         15.44368      -14.07312       -2.65505
H         13.76360      -13.84437       -3.17338
H         14.28918      -13.25887       -1.58304
H         14.82640       -7.43934       -1.75699
H         15.85005       -8.68350       -1.03722
H         14.15567       -9.06550       -1.41160
