63

C          0.87535        2.06833        0.27292
C          2.24029        1.40132        0.45993
C          2.69396        0.62242       -0.78075
C          4.07558       -0.01679       -0.61184
C          4.53073       -0.75111       -1.89902
C          5.92199       -1.24354       -1.78910
N          7.02193       -0.50897       -2.04504
N          8.08187       -1.25575       -1.80518
N          7.68081       -2.43621       -1.39738
N          6.31994       -2.46436       -1.35667
C          5.53325       -3.65011       -1.05017
C          5.24285       -4.45164       -2.34143
O          5.41956       -3.99380       -3.44810
O          4.78354       -5.64994       -2.00081
C          4.46810       -6.59490       -3.09905
C          5.67353       -7.46039       -3.43040
C          6.20441       -8.27584       -2.24562
C          7.35290       -9.22214       -2.61020
C          7.86816      -10.01852       -1.40529
C          9.00728      -10.98242       -1.75063
C          8.61111       -3.55460       -1.16635
C          8.73743       -4.46885       -2.39531
C          9.97216       -5.37767       -2.33113
C          9.89793       -6.46132       -1.24936
S         11.30333       -7.58519       -1.43809
O         11.17440       -8.26118       -2.71305
O         12.49340       -6.86355       -1.07247
O         11.01803       -8.65612       -0.26052
H          0.57756        2.61912        1.17431
H          0.09089        1.32706        0.06250
H          0.89097        2.78308       -0.56241
H          2.20624        0.72107        1.32743
H          2.99591        2.16691        0.70203
H          2.71682        1.30218       -1.64969
H          1.95039       -0.15692       -1.02147
H          4.06773       -0.72371        0.23550
H          4.81994        0.75694       -0.36726
H          4.51808       -0.05086       -2.74659
H          3.84742       -1.57446       -2.15183
H          4.59032       -3.31925       -0.59552
H          6.05466       -4.26494       -0.30777
H          4.12406       -6.00986       -3.96047
H          3.63969       -7.18393       -2.68709
H          6.46921       -6.83501       -3.86869
H          5.35214       -8.13814       -4.23911
H          5.37681       -8.86036       -1.80817
H          6.53538       -7.59099       -1.44459
H          8.18639       -8.65295       -3.05905
H          7.01733       -9.92099       -3.39484
H          7.03476      -10.58403       -0.95745
H          8.19501       -9.31433       -0.61904
H          8.66993      -11.77273       -2.43586
H          9.39720      -11.48686       -0.85425
H          9.83563      -10.46937       -2.26614
H          8.29119       -4.07967       -0.25574
H          9.56200       -3.05077       -0.94810
H          8.81410       -3.83045       -3.28709
H          7.83105       -5.07883       -2.51771
H         10.88144       -4.77259       -2.19308
H         10.07058       -5.86666       -3.31129
H          8.99084       -7.07418       -1.34445
H          9.96736       -6.07121       -0.22420
H         10.67472       -9.47376       -0.67833
