59

N          1.62537        1.43703       -0.02069
C          2.88885        1.29969       -0.79452
C          2.96377       -0.03652       -1.56015
C          1.88236       -0.16688       -2.66973
C          0.62177       -1.00344       -2.31270
N          0.18153       -0.72898       -0.93885
C         -0.19175       -1.85960       -0.33587
N         -0.68309       -1.90418        0.91335
N          0.00597       -2.92420       -1.11841
C          0.74013       -2.58236       -2.35622
C          2.12164       -3.25007       -2.39588
C          2.70962       -3.38882       -3.80420
C          4.07894       -4.09128       -3.79230
C          4.66661       -4.22207       -5.17801
C          4.27548       -5.26819       -6.02712
C          4.78648       -5.36651       -7.32267
C          5.70025       -4.41714       -7.78862
C          6.09976       -3.37251       -6.95144
C          5.58486       -3.27698       -5.65633
C         -0.43839       -0.58230       -3.37357
O         -0.52486       -1.14397       -4.43633
C         -1.39162        0.64683       -3.12125
C         -2.83020        0.16676       -2.70764
C         -3.79649        1.26059       -2.12196
C         -3.96859        2.53339       -3.01518
O         -4.38264        2.44047       -4.13654
O         -3.62871        3.69312       -2.42511
F         -5.00628        0.67728       -1.95535
F         -3.32634        1.60512       -0.86468
F         -3.40815       -0.41026       -3.77546
F         -2.67924       -0.79716       -1.73338
F         -0.88974        1.48550       -2.14920
F         -1.47750        1.36343       -4.26358
O          4.26872       -0.23131       -2.09073
H          1.16844        2.32476       -0.22811
H          1.82613        1.44620        0.97946
H          3.76153        1.35269       -0.12974
H          2.97532        2.13128       -1.51173
H          2.84661       -0.85068       -0.82793
H          2.34512       -0.62074       -3.55352
H          1.55980        0.84078       -2.97784
H          0.57379        0.13098       -0.43901
H         -1.07556       -1.06455        1.32087
H         -0.95043       -2.78618        1.33200
H         -0.30822       -3.86276       -0.90113
H          0.16189       -2.93000       -3.22402
H          1.99382       -4.26224       -1.97503
H          2.82989       -2.74321       -1.72384
H          2.82581       -2.40768       -4.28887
H          2.00850       -3.95315       -4.44048
H          3.96964       -5.08907       -3.33589
H          4.76889       -3.52232       -3.14922
H          3.56989       -6.02101       -5.66662
H          4.47627       -6.18973       -7.96746
H          6.10483       -4.49537       -8.79810
H          6.82118       -2.63480       -7.30506
H          5.90962       -2.46517       -5.00070
H         -3.36476        3.53255       -1.49842
H          4.48956        0.50135       -2.69045
