69

C          1.73046       -0.06804       -2.27880
C          3.12602        0.07831       -1.66732
C          4.22132       -0.62541       -2.47708
C          5.62024       -0.47847       -1.87011
C          6.71840       -1.18346       -2.67365
C          8.10981       -1.01811       -2.05381
C          9.23287       -1.70471       -2.82525
O          9.37047       -1.24848       -4.19228
C          9.90689        0.05295       -4.34291
C         11.33563       -0.03499       -4.89575
O         11.76590        1.29325       -5.18929
C         13.13913        1.34653       -5.54855
C         13.41361        0.56153       -6.83313
N         12.87436       -0.84543       -6.63891
C         11.44355       -0.92823       -6.14446
C         10.47189       -0.56809       -7.29437
C         10.93568       -1.08851       -8.57253
C         11.43303       -1.50887       -9.59354
C         14.89865        0.51531       -7.21038
C         15.24410       -0.11038       -8.57071
O         14.66161       -1.44263       -8.66554
C         15.50953       -2.51427       -8.49331
O         16.67245       -2.41303       -8.18589
C         14.76224       -3.81002       -8.71066
S         13.56133       -4.15324       -7.36511
C         14.72062        0.69092       -9.76712
O         14.87007       -0.03013      -11.00024
C         16.14967       -0.14684      -11.47863
O         17.10955        0.38606      -10.96724
C         16.18662       -1.05350      -12.68581
S         16.10125       -2.81472      -12.18090
H          0.97072        0.44511       -1.67387
H          1.43557       -1.12526       -2.35390
H          1.69065        0.35824       -3.29236
H          3.12234       -0.32244       -0.63963
H          3.37688        1.14847       -1.57188
H          4.22544       -0.22731       -3.50747
H          3.97345       -1.69752       -2.56988
H          5.61335       -0.87172       -0.83849
H          5.86702        0.59443       -1.78017
H          6.72717       -0.79467       -3.70550
H          6.48237       -2.25859       -2.75788
H          8.12136       -1.43701       -1.03299
H          8.33820        0.05488       -1.92828
H          9.03332       -2.78137       -2.92345
H         10.19705       -1.58679       -2.29631
H          9.93717        0.61608       -3.39774
H          9.27508        0.62872       -5.03953
H         11.99318       -0.47092       -4.11353
H         13.77167        0.96590       -4.72070
H         13.38466        2.40477       -5.70572
H         12.81031        0.98942       -7.64597
H         13.48341       -1.36656       -5.99195
H         12.94784       -1.35758       -7.54339
H         11.29494       -1.97887       -5.86188
H         10.34010        0.52360       -7.36034
H          9.48985       -0.99331       -7.03822
H         11.83295       -1.87407      -10.51768
H         15.46695       -0.01337       -6.42740
H         15.27692        1.54986       -7.20435
H         16.33432       -0.21542       -8.64034
H         15.47766       -4.63423       -8.78798
H         14.16750       -3.75279       -9.63016
H         14.48009       -4.48618       -6.42654
H         15.25878        1.64945       -9.81519
H         13.64027        0.87391       -9.69934
H         17.10183       -0.86786      -13.25624
H         15.30948       -0.89514      -13.32456
H         17.31808       -2.85576      -11.58639
