67

C         13.66906       -1.15582        5.87993
C         12.83765       -0.68709        4.68311
C         13.17425       -1.42631        3.38302
C         12.35423       -0.95486        2.17776
C         12.67590       -1.70929        0.88318
C         11.86206       -1.23073       -0.32373
C         12.15387       -2.01673       -1.60650
C         11.34744       -1.53354       -2.81671
C         11.59771       -2.37193       -4.07369
C         10.79387       -1.86792       -5.29239
C         11.03093       -2.68291       -6.51264
N         11.65742       -2.27570       -7.59361
N         11.67760       -3.37553       -8.41998
C         11.08667       -4.43973       -7.84342
N         10.93024       -5.69294       -8.33294
C          9.93332       -6.59951       -7.73543
C         10.29011       -7.09260       -6.31852
O         10.30879       -6.24858       -5.39030
N         10.52346       -8.39689       -6.09314
C         10.55954       -9.44707       -7.12513
C          9.20659      -10.11848       -7.35564
C         10.78914       -8.82394       -4.70209
C         12.27820       -8.79810       -4.35662
C         11.69625       -6.09613       -9.52093
C         13.18255       -6.14361       -9.29046
C         14.12495       -5.42131       -9.90508
Br        13.74247       -4.09363      -11.20615
Br        13.75301       -7.37797       -7.95247
N         10.65786       -4.01288       -6.63592
H         13.40037       -0.61131        6.79527
H         14.74406       -0.99994        5.70515
H         13.51947       -2.22811        6.07592
H         12.98532        0.39589        4.53282
H         11.76474       -0.81634        4.90550
H         13.01793       -2.50991        3.53073
H         14.24993       -1.30525        3.16309
H         12.52256        0.12554        2.02231
H         11.27844       -1.06240        2.40397
H         12.49795       -2.78850        1.03795
H         13.75288       -1.61041        0.65955
H         12.06093       -0.15879       -0.49723
H         10.78535       -1.30375       -0.09007
H         11.94282       -3.08663       -1.43185
H         13.23161       -1.95449       -1.83788
H         11.59185       -0.47788       -3.02481
H         10.27096       -1.55428       -2.57335
H         11.33894       -3.42431       -3.86664
H         12.67039       -2.35956       -4.32668
H         11.06904       -0.83256       -5.53513
H          9.71650       -1.87280       -5.05946
H         12.14663       -3.31607       -9.32546
H          9.77636       -7.41197       -8.44945
H          8.97452       -6.06540       -7.63666
H         11.30135      -10.18541       -6.78983
H         10.96788       -9.03087       -8.05466
H          8.80790      -10.54539       -6.42591
H          9.31090      -10.93457       -8.08272
H          8.46256       -9.40828       -7.74356
H         10.37641       -9.83630       -4.59317
H         10.22813       -8.15554       -4.03926
H         12.86025       -9.46402       -5.00922
H         12.42362       -9.13743       -3.32274
H         12.68206       -7.78137       -4.44276
H         11.48290       -5.42015      -10.36572
H         11.33635       -7.09049       -9.81473
H         15.18957       -5.52257       -9.70828
H         10.36165       -4.74807       -5.91978
