81

C          1.32940        0.85860        0.41912
C          2.84233        0.63205        0.37498
C          3.28334       -0.29527       -0.76326
C          4.79664       -0.52851       -0.80818
C          5.23632       -1.47132       -1.93312
C          6.75186       -1.69792       -1.96952
C          7.17902       -2.68615       -3.06029
C          8.69366       -2.90872       -3.06168
N          9.10431       -3.93062       -4.05907
C          8.89106       -5.25425       -3.75141
C          9.16151       -6.26703       -4.64259
C          8.91902       -7.71124       -4.27569
C          8.34469       -7.97909       -2.87592
O          7.09863       -7.28930       -2.55859
C          5.98538       -7.48526       -3.35391
O          6.01727       -7.96102       -4.46152
C          4.76385       -7.02952       -2.57468
S          3.27620       -6.69106       -3.54988
C          8.19270       -9.47585       -2.58964
O          7.90046       -9.65042       -1.18880
C          6.60100       -9.88547       -0.86069
O          5.70867      -10.03607       -1.67069
C          6.35048       -9.87432        0.63720
S          7.67843      -10.40960        1.76140
C          9.68591       -5.91442       -5.93186
C          9.91608       -4.52335       -6.22094
C          9.59796       -3.56626       -5.24436
C         10.44265       -4.12292       -7.47372
C         10.73953       -5.06169       -8.44375
C         10.50332       -6.43348       -8.16296
C          9.99592       -6.85035       -6.94520
C         11.30724       -4.63217       -9.77556
O         11.30075       -5.71821      -10.66790
C         11.77366       -5.36942      -11.97921
C         11.65737       -6.58747      -12.87941
C         12.10648       -6.30377      -14.31882
C         11.96726       -7.52331      -15.23373
H          1.04802        1.52569        1.24493
H          0.78682       -0.08825        0.55790
H          0.96556        1.31417       -0.51375
H          3.18079        0.21033        1.33660
H          3.35858        1.60160        0.27297
H          2.94902        0.12609       -1.72766
H          2.76642       -1.26606       -0.66318
H          5.13176       -0.93858        0.16073
H          5.31339        0.44059       -0.92079
H          4.90292       -1.06727       -2.90458
H          4.72470       -2.44309       -1.81665
H          7.08898       -2.07176       -0.98724
H          7.26483       -0.73282       -2.12110
H          6.86693       -2.32207       -4.05284
H          6.66884       -3.65153       -2.90499
H          9.04620       -3.25772       -2.08092
H          9.23531       -1.98449       -3.30134
H          8.47366       -5.43168       -2.76478
H          9.88415       -8.24445       -4.32795
H          8.26385       -8.16318       -5.03359
H          9.02971       -7.57352       -2.11433
H          5.02722       -6.19872       -1.90784
H          4.49317       -7.88201       -1.93039
H          3.75570       -5.60238       -4.19630
H          9.14923       -9.98688       -2.76472
H          7.40469       -9.93259       -3.20313
H          5.42280      -10.42883        0.81762
H          6.15476       -8.82583        0.91436
H          7.61625      -11.72437        1.44740
H          9.73669       -2.49843       -5.41153
H         10.60383       -3.05918       -7.66410
H         10.72847       -7.15963       -8.94328
H          9.82835       -7.91303       -6.77564
H         12.33819       -4.24604       -9.62195
H         10.70953       -3.78532      -10.17201
H         12.82285       -5.02150      -11.91162
H         11.16832       -4.52982      -12.37335
H         10.60952       -6.92926      -12.87524
H         12.25886       -7.40663      -12.45280
H         13.15521       -5.96276      -14.31649
H         11.51549       -5.46773      -14.72876
H         12.57238       -8.36706      -14.87115
H         12.29658       -7.29379      -16.25570
H         10.92292       -7.86374      -15.28956
