41

C          0.91680        0.20233       -1.16614
C          2.38655        0.30004       -1.57956
C          3.25618        0.92436       -0.48189
C          4.75306        0.98902       -0.79014
S          5.11226        1.88898       -2.34855
C          4.57441        3.59115       -1.95681
C          4.74589        4.57091       -3.13928
C          3.83332        4.25782       -4.32948
O          4.12590        5.06635       -5.44583
O          4.53824        5.89250       -2.65327
C          6.93587        2.06915       -2.31301
C          7.61879        0.70581       -2.32887
O          6.97984       -0.08236       -3.30836
C          7.63571       -1.34836       -3.54446
C          6.91086       -2.04846       -4.67919
O          7.04211       -1.36957       -5.91969
H          0.30891       -0.22608       -1.97265
H          0.50175        1.19185       -0.92537
H          0.79477       -0.43556       -0.27969
H          2.46462        0.89343       -2.50757
H          2.77605       -0.70045       -1.82845
H          3.17145        0.32720        0.44077
H          2.87953        1.92434       -0.21444
H          5.16470       -0.01214       -0.98455
H          5.33078        1.47288        0.00997
H          5.13260        3.94576       -1.07946
H          3.51044        3.49176       -1.69203
H          5.79034        4.56995       -3.48883
H          2.77523        4.35952       -4.00294
H          3.97097        3.21653       -4.66224
H          4.05095        5.99949       -5.18339
H          3.59276        6.01720       -2.45541
H          7.21547        2.66306       -1.43224
H          7.16416        2.63110       -3.22897
H          7.57468        0.22683       -1.33135
H          8.68794        0.86884       -2.56437
H          7.60554       -1.96392       -2.62619
H          8.68815       -1.16311       -3.82121
H          5.84973       -2.20090       -4.40715
H          7.36327       -3.04089       -4.81793
H          6.56190       -0.52951       -5.85760
