48

C          3.37474        1.45566       -0.05971
C          3.97284        0.86526        1.19989
O          4.79129       -0.34255        0.93866
C          4.11550       -1.48526        0.82224
O          2.91071       -1.62809        0.84013
C          5.07248       -2.69719        0.80591
C          4.31600       -3.95482        0.59763
N          4.98016       -4.80579       -0.09802
C          6.29686       -4.34028       -0.58264
C          6.30701       -2.83418       -0.15505
C          6.44913       -1.86205       -1.34969
C          5.28308       -1.49602       -2.22354
C          5.08324       -0.31648       -2.82296
Br         6.25875        1.15348       -2.64447
Br         3.99726       -2.84518       -2.70673
C          7.44202       -5.26481       -0.05432
C          7.15608       -6.75579       -0.50069
C          6.65382       -6.94651       -1.94602
C          8.35452       -7.69154       -0.27061
C          8.76898       -4.70759       -0.61014
O          8.66956       -4.52259       -2.02389
C          7.52832       -5.20733        1.48411
H          2.80383        2.35301        0.21804
H          2.68416        0.75725       -0.54731
H          4.15282        1.75843       -0.76952
H          3.20024        0.58015        1.92533
H          4.69167        1.54401        1.67274
H          5.44101       -2.73523        1.85170
H          3.31538       -4.16465        0.97859
H          4.62175       -5.73151       -0.33991
H          6.27992       -4.42408       -1.67660
H          7.20623       -2.65634        0.44584
H          7.24478       -2.28736       -1.98676
H          6.84404       -0.90951       -0.96864
H          4.25191       -0.11566       -3.49368
H          6.35890       -7.11163        0.18115
H          7.39058       -6.58999       -2.67607
H          5.70381       -6.43824       -2.17411
H          6.48323       -8.01521       -2.13080
H          9.15292       -7.50828       -1.00341
H          8.03605       -8.73415       -0.39872
H          8.78361       -7.60806        0.73599
H          9.57954       -5.40765       -0.35296
H          9.00182       -3.74928       -0.10839
H          9.54926       -4.31601       -2.37514
H          6.62227       -5.61048        1.95775
H          7.68919       -4.18599        1.85683
H          8.37056       -5.80611        1.85124
