47

C         10.05703        2.03350       -0.29370
C          8.72443        1.28621       -0.38564
C          8.73273       -0.01926        0.41896
C          7.40069       -0.74855        0.39240
O          7.56945       -1.98754        1.11207
C          6.36616       -2.69932        1.32001
C          6.72631       -3.94716        2.05778
N          6.36998       -5.15941        1.69676
N          6.94832       -5.96532        2.61970
C          7.65934       -5.30065        3.52899
N          7.51303       -3.99110        3.20449
C          8.19699       -2.86710        3.83834
C          9.64527       -2.77911        3.32677
O         10.23847       -3.72102        2.84862
O         10.11859       -1.54910        3.53064
C         11.49465       -1.32023        3.10820
C          8.46590       -5.92515        4.61420
C          7.90910       -7.27775        5.07424
O          7.78184       -8.12356        3.93551
C          7.44517       -9.49151        4.26747
C          7.25138      -10.26211        2.97877
H         10.04102        2.95315       -0.89235
H         10.88921        1.41444       -0.65972
H         10.28326        2.31899        0.74436
H          8.49660        1.06447       -1.44064
H          7.91076        1.93771       -0.02683
H          8.99742        0.19081        1.46826
H          9.50863       -0.69581        0.02450
H          7.07944       -0.96935       -0.64183
H          6.60622       -0.14798        0.87494
H          5.87242       -3.00156        0.37943
H          5.63463       -2.10224        1.90458
H          6.89037       -6.99306        2.61403
H          8.20134       -3.01190        4.92792
H          7.65597       -1.94412        3.61553
H         11.72102       -0.29802        3.42136
H         11.56531       -1.42050        2.01843
H         12.16439       -2.03908        3.59412
H          8.52610       -5.24526        5.47626
H          9.49297       -6.04365        4.23114
H          6.92983       -7.14949        5.57401
H          8.60805       -7.71380        5.80862
H          6.52756       -9.49944        4.88257
H          8.26579       -9.91583        4.87151
H          6.41566       -9.85791        2.39073
H          7.02126      -11.31157        3.20516
H          8.16103      -10.23951        2.36445
