51

C          8.04671        4.86175       -1.28535
C          7.10736        4.43993       -0.15385
C          7.21591        2.94867        0.18084
C          6.30912        2.48491        1.32654
N          4.86697        2.58654        1.02178
C          4.14155        3.57075        1.61145
O          4.58912        4.40293        2.39922
C          2.63417        3.62338        1.21088
C          1.90380        4.65569        1.98896
N          0.92950        4.46003        2.92362
C          0.53263        5.71053        3.33615
N          1.19660        6.65212        2.71673
N          2.04585        5.98549        1.88885
C          2.92576        6.75061        0.97102
C          3.47116        8.02696        1.60552
C          4.46907        7.79965        2.74658
N          4.86904        9.09326        3.29977
C          0.35363        3.20300        3.42277
C          0.83122        2.82497        4.82615
C          0.06247        1.66007        5.41965
Br        -1.81065        2.17741        5.74119
Br         2.73660        2.30299        4.77129
C          4.30783        1.64420        0.05220
H          7.95538        5.93421       -1.50292
H          7.82857        4.31341       -2.21340
H          9.09620        4.66491       -1.02380
H          6.06696        4.67996       -0.43441
H          7.32114        5.02865        0.75280
H          8.25112        2.71356        0.47741
H          7.02234        2.34643       -0.72354
H          6.48443        3.08910        2.22472
H          6.51585        1.43239        1.57394
H          2.16165        2.64440        1.36109
H          2.54643        3.84981        0.13581
H         -0.24413        5.88289        4.07494
H          2.32118        6.98789        0.08298
H          3.73884        6.07213        0.68798
H          2.64627        8.66099        1.95695
H          3.96355        8.58034        0.78943
H          5.30473        7.17065        2.38206
H          3.98547        7.22769        3.55318
H          5.48590        9.59347        2.65810
H          5.38816        8.97145        4.16860
H          0.57483        2.40227        2.70721
H         -0.73852        3.33775        3.45228
H          0.79862        3.69067        5.49928
H          0.46910        1.37975        6.39451
H          0.04086        0.78731        4.75809
H          5.06704        0.88689       -0.16875
H          4.03444        2.12866       -0.89784
H          3.42890        1.11888        0.45252
