86

C          1.01064       11.10322        3.19005
C          2.53815       11.00921        3.22784
C          3.05217        9.63795        3.68057
C          4.58044        9.53594        3.72096
C          5.09229        8.17041        4.19045
C          6.62059        8.06671        4.23516
C          7.12349        6.70872        4.73516
C          8.65072        6.59884        4.80115
C          9.13225        5.25807        5.36451
C         10.65716        5.13536        5.46885
C         11.09205        3.83616        6.15600
C         12.61186        3.64710        6.30260
C         12.97416        2.33638        7.04748
C         13.25021        2.75556        8.48631
N         14.00742        4.09617        8.29827
C         13.26223        4.77580        7.14442
C         15.51086        4.01868        8.15921
C         16.00477        3.37975        6.85572
O         15.73872        3.81503        5.75448
O         16.79734        2.33957        7.13601
C         17.42441        1.65456        5.98935
C         16.53336        0.54158        5.47352
C         13.92617        1.76192        9.41854
C         14.11850        2.22278       10.87560
C         12.82015        2.71035       11.53374
S         12.91013        2.82928       13.33736
C         12.48845        1.13592       13.81346
S         12.18722       -0.06318       12.68994
N         12.44342        0.96170       15.15060
C         12.69562        2.03667       16.12446
C         14.14613        2.08289       16.61130
C         12.11459       -0.35722       15.72351
C         10.61192       -0.55092       15.92951
H          0.67509       12.09789        2.86610
H          0.57373       10.91221        4.18172
H          0.58206       10.36594        2.49470
H          2.93874       11.78587        3.90145
H          2.94669       11.23765        2.22883
H          2.65153        8.85860        3.00823
H          2.64433        9.40912        4.68129
H          4.98054       10.32248        4.38515
H          4.98752        9.75381        2.71782
H          4.69250        7.38249        3.52813
H          4.68417        7.95478        5.19384
H          7.02102        8.86500        4.88492
H          7.03084        8.26285        3.22904
H          6.72792        5.90918        4.08473
H          6.70368        6.51504        5.73826
H          9.04815        7.41918        5.42507
H          9.07580        6.75166        3.79393
H          8.74352        4.43411        4.74176
H          8.69075        5.11091        6.36633
H         11.04433        6.01113        6.02051
H         11.10851        5.19001        4.46352
H         10.69913        2.97844        5.58706
H         10.61858        3.77788        7.15413
H         13.07552        3.64542        5.30736
H         13.85058        1.83970        6.60835
H         12.14965        1.61291        7.01947
H         12.30160        3.08833        8.93799
H         13.85620        4.65234        9.14728
H         13.97209        5.39083        6.58485
H         12.50834        5.42257        7.61159
H         15.90057        3.48532        9.03046
H         15.87774        5.05417        8.17704
H         18.36264        1.27268        6.40716
H         17.63759        2.40668        5.21980
H         16.27844       -0.16819        6.27145
H         17.07023       -0.01114        4.69030
H         15.61150        0.93629        5.02695
H         14.87953        1.41523        8.99056
H         13.26780        0.87806        9.43111
H         14.89653        3.00077       10.96338
H         14.48903        1.35859       11.44274
H         11.99282        2.01520       11.31544
H         12.53067        3.72692       11.22010
H         12.01043        1.86919       16.96812
H         12.39941        2.99621       15.67700
H         14.43759        1.13940       17.09223
H         14.26440        2.88637       17.35067
H         14.83737        2.27548       15.78091
H         12.65414       -0.43254       16.67867
H         12.51285       -1.12101       15.04387
H         10.19019        0.21662       16.59324
H         10.42468       -1.53097       16.38842
H         10.08156       -0.51440       14.96982
