64

C          8.03162       -2.98410        9.84465
C          7.20058       -3.29775        8.59836
C          7.65306       -2.49074        7.37980
C          6.87715       -2.79411        6.12310
O          6.03475       -3.65163        5.97173
O          7.26122       -1.94902        5.09965
C          6.59567       -2.15481        3.84687
C          7.07620       -3.39564        3.08621
N          8.53312       -3.42025        2.85407
N          9.27529       -3.79793        3.93266
C         10.50427       -3.78190        3.50320
N         10.58346       -3.42045        2.18188
C          9.29947       -3.16828        1.76031
C          8.78904       -2.74151        0.38010
C          8.12318       -4.02163       -0.23767
C          7.86053       -4.07573       -1.75900
C          7.46811       -5.51602       -2.12610
C          6.79321       -3.09110       -2.25971
C          7.79711       -1.50778        0.52941
O          6.42658       -1.80547        0.71412
C          9.91356       -2.20588       -0.53303
C         11.90261       -3.49858        1.49599
C         12.49809       -4.92294        1.51564
C         11.60188       -5.98943        0.84829
C         11.48967       -5.93479       -0.67906
C         13.91316       -4.85700        0.92256
H          7.68383       -3.57049       10.70497
H          7.96341       -1.92148       10.12049
H          9.09552       -3.21959        9.69233
H          6.13745       -3.09122        8.79269
H          7.25823       -4.37088        8.36380
H          8.71670       -2.68013        7.15125
H          7.58869       -1.40610        7.56540
H          6.76966       -1.23826        3.27299
H          5.51419       -2.28129        4.00172
H          6.55960       -3.42982        2.12488
H          6.86200       -4.29894        3.66788
H         11.36956       -4.02863        4.10865
H          7.17602       -4.21725        0.28842
H          8.77886       -4.87077        0.00703
H          8.80304       -3.85128       -2.28523
H          6.53984       -5.81876       -1.61805
H          8.25392       -6.23036       -1.84437
H          7.30002       -5.61196       -3.20685
H          5.82199       -3.27639       -1.77085
H          6.62604       -3.21972       -3.33751
H          7.07240       -2.03655       -2.11592
H          7.92876       -0.88094       -0.36333
H          8.11273       -0.90016        1.39108
H          6.02043       -1.93922       -0.15754
H         10.59178       -2.98813       -0.88845
H         10.49626       -1.40812       -0.05184
H          9.45585       -1.77052       -1.42833
H         12.56701       -2.80302        2.02787
H         11.79893       -3.13008        0.47826
H         12.60358       -5.22101        2.57283
H         10.59538       -5.95149        1.29862
H         12.00220       -6.97326        1.13521
H         11.10515       -4.97331       -1.04872
H         10.80217       -6.71194       -1.03753
H         12.45661       -6.10850       -1.16827
H         13.91098       -4.48712       -0.11251
H         14.37154       -5.85434        0.91759
H         14.56388       -4.19558        1.51077
