70

C          0.97437        1.56417       -2.41095
C          2.15117        1.09915       -1.55863
S          3.15196       -0.07444       -2.56091
C          4.40398       -0.43174       -1.43981
N          4.58962        0.00813       -0.20788
N          5.74350       -0.58922        0.23439
C          6.20259       -1.35277       -0.72843
O          5.38798       -1.30019       -1.83752
C          7.38621       -2.18936       -0.76894
C          7.66650       -2.91738       -1.91082
C          8.78620       -3.77271       -2.05578
C          8.89337       -4.49827       -3.38153
C          8.28967       -3.78859       -4.61666
C          8.68069       -4.53486       -5.87336
C          7.93124       -5.63519       -6.31307
C          8.32310       -6.35862       -7.44122
C          9.47192       -5.98897       -8.14607
C         10.22395       -4.89203       -7.71882
C          9.83095       -4.17217       -6.58830
C          9.68542       -3.91134       -0.97376
C          9.45684       -3.16440        0.22710
C          8.30287       -2.29887        0.33288
C          8.09016       -1.56959        1.51050
N          8.94639       -1.65658        2.53291
C         10.06050       -2.44646        2.48808
C         10.31783       -3.18735        1.37067
C         10.87050       -4.88822       -1.06597
C         12.23820       -4.36376       -1.71799
C         13.00524       -3.09804       -1.13376
C         13.93932       -3.29650        0.14237
C         15.47829       -3.62107       -0.10062
C         16.52432       -2.44888       -0.34485
C         16.84010       -1.34263        0.75261
C         17.14087       -1.79470        2.22738
F         18.07653       -2.75544        2.25594
F         17.58172       -0.73207        2.91904
F         16.01898       -2.25242        2.82472
F         17.94658       -0.70286        0.29820
F         15.82000       -0.44767        0.79211
F         17.69032       -3.09330       -0.59951
F         16.15712       -1.76476       -1.45792
F         15.90304       -4.31273        0.98593
F         15.56775       -4.43799       -1.18026
F         13.83793       -2.17355        0.89647
F         13.43301       -4.32419        0.88047
F         13.74493       -2.58091       -2.13699
F         12.05764       -2.16761       -0.80609
F         13.08863       -5.41335       -1.75839
F         11.92822       -4.01309       -3.00018
F         11.16247       -5.42966        0.15792
F         10.53035       -5.96017       -1.84195
H          0.36663        2.26463       -1.82334
H          0.32734        0.72777       -2.70734
H          1.30639        2.08765       -3.31724
H          1.82637        0.57037       -0.65441
H          2.80701        1.92858       -1.26744
H          6.98111       -2.83434       -2.75027
H          8.40146       -5.47968       -3.26350
H          9.93274       -4.73313       -3.61530
H          8.66172       -2.75345       -4.66957
H          7.19205       -3.73941       -4.55543
H          7.02747       -5.92672       -5.77222
H          7.72742       -7.20929       -7.77410
H          9.77693       -6.55122       -9.02901
H         11.11726       -4.59322       -8.26841
H         10.42213       -3.31394       -6.25980
H          7.22198       -0.91451        1.61742
H          8.75923       -1.10896        3.37202
H         10.70142       -2.44258        3.36641
H         11.20913       -3.79935        1.39459
