91

C         15.89658       -5.18001       -1.45514
C         14.87728       -4.29613       -0.73133
C         15.33163       -2.83913       -0.58363
C         14.31213       -1.94628        0.13144
C         14.75690       -0.48547        0.26577
C         13.72363        0.40517        0.96401
C         14.14593        1.87458        1.07702
C         13.09320        2.75448        1.75966
C         13.47954        4.23659        1.84532
C         12.39202        5.09142        2.50771
C         12.73403        6.57747        2.68819
C         12.96130        7.31716        1.34421
C         13.09908        8.79472        1.53161
N         14.33665        9.25815        1.84342
C         14.65831       10.54985        2.09129
C         13.66491       11.51253        2.04775
C         12.36606       11.08343        1.73773
C         12.06099        9.74526        1.47368
C         10.66864        9.36001        1.05172
C         10.58954        9.15307       -0.47161
O         11.54629        8.85418       -1.15972
O          9.33185        9.32224       -0.89609
C          9.08468        9.10884       -2.33234
C          9.31836       10.38098       -3.12452
C         14.00600       12.95903        2.29853
O         15.40102       13.06531        2.42063
C         15.88206       14.41793        2.55573
C         17.39988       14.38580        2.50483
C         18.03290       15.77886        2.60867
C         19.55523       15.75113        2.42663
C         20.20645       17.13568        2.49882
C         21.71412       17.11708        2.22461
C         22.36421       18.50296        2.28625
C         23.85993       18.49891        1.95093
C         24.49409       19.89141        1.99904
H         15.53942       -6.21495       -1.54697
H         16.85618       -5.20688       -0.91749
H         16.09856       -4.80777       -2.47070
H         14.67014       -4.71458        0.26827
H         13.91645       -4.32227       -1.27307
H         15.54356       -2.42215       -1.58430
H         16.29097       -2.81071       -0.03708
H         14.10584       -2.35872        1.13483
H         13.35154       -1.98441       -0.41216
H         14.97151       -0.07709       -0.73768
H         15.71163       -0.44285        0.81902
H         13.51933        0.00582        1.97289
H         12.76571        0.34556        0.41777
H         14.35537        2.27130        0.06771
H         15.09799        1.94175        1.63229
H         12.89811        2.37118        2.77614
H         12.13701        2.66368        1.21517
H         13.68952        4.60411        0.82558
H         14.42345        4.33946        2.41014
H         12.16704        4.67837        3.50414
H         11.45567        5.00630        1.92950
H         13.63313        6.68369        3.31923
H         11.91727        7.07441        3.23610
H         12.13483        7.11501        0.65287
H         13.86505        6.93350        0.84604
H         15.08918        8.56904        1.87715
H         15.69840       10.78290        2.30576
H         11.56301       11.82300        1.68167
H          9.94316       10.12600        1.35132
H         10.34291        8.42135        1.52595
H          8.03577        8.79188       -2.36286
H          9.73009        8.28864       -2.67141
H          8.70182       11.20521       -2.74316
H          9.04068       10.20773       -4.17354
H         10.37452       10.67879       -3.10188
H         13.48220       13.30708        3.21393
H         13.62232       13.57404        1.45815
H         15.51677       14.84305        3.50938
H         15.47219       15.03156        1.73149
H         17.70484       13.91029        1.55807
H         17.77191       13.74195        3.31834
H         17.78456       16.23008        3.58479
H         17.59158       16.44214        1.84423
H         19.79169       15.28982        1.45131
H         20.00521       15.09205        3.18981
H         20.01811       17.57902        3.49240
H         19.71518       17.80623        1.77149
H         21.89471       16.67520        1.22833
H         22.21169       16.44539        2.94643
H         22.21739       18.93113        3.29392
H         21.83939       19.18292        1.59168
H         24.00306       18.06394        0.94686
H         24.38848       17.82659        2.64812
H         24.00314       20.57842        1.29335
H         25.56139       19.85800        1.74010
H         24.40982       20.33470        3.00267
