62

C          8.07220       -1.27779        2.03548
C          7.60380       -0.33684        0.92280
C          7.24950        1.07234        1.41560
C          6.93913        2.05710        0.28384
C          6.39528        3.40657        0.77189
C          6.09964        4.41185       -0.36186
C          7.15347        5.48068       -0.58113
O          8.43003        4.86360       -0.88950
C          9.39966        5.83738       -1.21928
C         10.68477        5.13201       -1.57396
C         11.01277        4.79277       -2.90669
C         10.03513        5.01263       -4.02630
C         10.20490        6.39514       -4.70420
C          9.04251        6.77891       -5.62487
S          7.51483        7.01924       -4.68575
O          6.88010        5.73918       -4.42818
O          7.80848        7.91935       -3.59316
O          6.61411        7.83152       -5.74922
C         12.26599        4.23055       -3.12902
C         13.12492        4.03945       -2.04500
N         12.77690        4.29523       -0.78884
N         11.56040        4.79960       -0.58874
C         11.20292        4.83690        0.85361
C         10.54349        3.52506        1.29420
O         11.53106        2.49980        1.29829
C         11.09946        1.20489        0.92327
C         11.30021        0.94440       -0.57171
F         12.59776        1.06863       -0.94512
F         10.88920       -0.29838       -0.89768
F         10.58851        1.83034       -1.34204
H          8.30106       -2.27853        1.64585
H          7.30325       -1.39214        2.81309
H          8.98025       -0.90098        2.53222
H          6.72157       -0.76821        0.42251
H          8.37717       -0.27505        0.13799
H          8.07202        1.47170        2.03999
H          6.38424        1.00894        2.09761
H          6.19382        1.60374       -0.39197
H          7.83872        2.21307       -0.33665
H          7.09794        3.85747        1.49510
H          5.47137        3.22049        1.34044
H          5.16632        4.95671       -0.15068
H          5.92834        3.87745       -1.30973
H          7.28093        6.10245        0.32632
H          6.86794        6.14335       -1.41569
H          9.57264        6.54976       -0.38849
H          9.07693        6.45217       -2.07627
H          9.01228        4.88993       -3.64634
H         10.18146        4.21919       -4.77385
H         11.12794        6.39968       -5.30300
H         10.32484        7.18350       -3.94650
H          8.82481        6.01995       -6.38899
H          9.23878        7.73926       -6.11969
H          5.89671        7.24132       -6.05340
H         12.57805        3.93809       -4.13255
H         14.13210        3.63796       -2.15919
H         10.52622        5.67541        1.04204
H         12.14645        4.98925        1.38823
H          9.69159        3.29041        0.64017
H         10.16224        3.68691        2.31851
H         10.04272        1.01999        1.16428
H         11.71698        0.47782        1.46847
