38

N          3.01215       -1.11631        1.36905
C          2.41533       -1.52828        0.08411
C          2.95897       -0.67523       -1.08395
C          4.44621       -0.73266       -1.17568
N          5.25797       -0.84650       -0.12431
C          6.58095       -0.90092       -0.52590
C          6.55928       -0.80512       -1.89747
N          5.23459       -0.69249       -2.28509
C          4.75404       -0.64732       -3.66505
O          4.22881       -1.92559       -3.95146
C          3.65446       -2.01834       -5.24456
O          4.66612       -1.82554       -6.19703
C          4.22363       -2.06146       -7.55049
C          5.45342       -2.02359       -8.43928
O          6.36473       -3.07497       -8.14940
C          7.65438       -1.05931        0.50108
O          7.30576       -1.16337        1.66661
C          9.08576       -1.07414        0.04147
H          2.84801       -1.82793        2.08230
H          2.58032       -0.25695        1.71567
H          1.31559       -1.46329        0.06743
H          2.68013       -2.58103       -0.08857
H          2.64755        0.37589       -0.95379
H          2.52036       -1.02622       -2.02704
H          4.82896       -0.93123        0.82996
H          7.36296       -0.80904       -2.62473
H          5.60822       -0.38985       -4.30813
H          3.98286        0.13928       -3.75531
H          2.85186       -1.25703       -5.36473
H          3.22318       -3.03262       -5.29920
H          3.49703       -1.28619       -7.85522
H          3.74253       -3.05381       -7.61058
H          5.93730       -1.03254       -8.35556
H          5.14142       -2.15775       -9.48433
H          6.62519       -2.98822       -7.21854
H          9.23415       -1.77987       -0.78878
H          9.73126       -1.34871        0.88172
H          9.37314       -0.07422       -0.31990
