76

C          6.47150       10.65600        3.13401
O          6.71458        9.52539        2.29879
C          5.51386        8.99916        1.73833
C          5.84573        7.85755        0.78800
O          6.56844        6.76900        1.36257
C          5.86648        6.05990        2.37957
C          6.55848        4.73291        2.60843
O          7.88007        4.99763        3.08718
C          8.74073        3.87662        3.13129
C         10.17768        4.38271        2.90946
C         10.60985        5.45001        3.85958
N         11.24071        5.25782        5.04613
C         11.50809        6.48336        5.63003
C         11.02023        7.43509        4.78603
N         10.45579        6.78502        3.70568
C          9.80098        7.48300        2.58549
C         10.78568        7.82183        1.45434
C         10.06761        8.57533        0.30760
N          9.26456        9.74730        0.62571
C          9.88568       10.96054        1.15861
C         10.71859       11.66496        0.08307
O          9.95034       11.86496       -1.09092
O         11.94491        8.48873        1.96679
C         11.53819        3.96780        5.67817
C         12.88724        3.34647        5.26968
O         14.02143        4.23995        5.37867
C         14.36560        4.74969        6.60074
O         13.71313        4.58993        7.61266
C         15.63175        5.56731        6.49649
S         15.23046        7.34152        6.25690
C         13.06344        2.03691        6.05459
O         14.29327        1.36299        5.75466
C         14.32754        0.67917        4.57091
O         13.40250        0.65690        3.78300
C         15.65655       -0.01150        4.38813
S         16.90274        1.15029        3.71129
H          7.44083       10.97548        3.53550
H          5.80154       10.39704        3.97228
H          6.02400       11.48870        2.56406
H          4.97906        9.77719        1.15960
H          4.83405        8.67177        2.54838
H          6.48559        8.22590       -0.02686
H          4.89802        7.49925        0.34133
H          4.82086        5.86290        2.07534
H          5.84698        6.63502        3.32362
H          6.61204        4.16526        1.66179
H          5.98380        4.14024        3.34396
H          8.50275        3.15455        2.33026
H          8.64717        3.34563        4.09850
H         10.25554        4.77516        1.88682
H         10.87446        3.53500        2.96914
H         12.02405        6.56855        6.57899
H         11.02978        8.51444        4.85710
H          9.36396        8.39863        3.00477
H          8.96464        6.86816        2.23014
H         11.16993        6.87735        1.02910
H          9.40300        7.85371       -0.19339
H         10.84139        8.84203       -0.43005
H          8.39899        9.52645        1.11935
H         10.50161       10.81930        2.07728
H          9.06065       11.62637        1.45228
H         11.63878       11.08560       -0.14169
H         11.04237       12.64998        0.45013
H          9.35525       11.09120       -1.14211
H         11.80974        9.44687        1.90162
H         10.74112        3.26071        5.41569
H         11.50508        4.13096        6.76059
H         12.87870        3.11391        4.19662
H         16.28730        5.21345        5.69430
H         16.15563        5.51579        7.45772
H         14.95061        7.25352        4.93480
H         12.21459        1.37830        5.81501
H         13.09894        2.22595        7.13265
H         15.53471       -0.87352        3.72466
H         16.05999       -0.33805        5.35394
H         16.37431        1.21071        2.46585
