71

C          2.42791      -10.30851        7.23505
C          3.89518       -9.96033        6.97002
C          4.07578       -8.90324        5.87537
C          5.53861       -8.54402        5.59446
C          5.70823       -7.53948        4.45010
C          7.16711       -7.17224        4.15923
C          7.33168       -6.27155        2.93012
C          8.79337       -5.99045        2.56636
C          8.95003       -5.12854        1.30678
C         10.40309       -4.87151        0.87063
C         11.21167       -6.12520        0.53573
N         10.51614       -6.91947       -0.58858
C         11.54199       -7.27710       -1.65964
C         12.55602       -6.12234       -1.51252
C         12.63735       -5.88442        0.00434
C         13.90332       -6.28976       -2.22033
C         13.77981       -6.54641       -3.72297
O         12.88543       -5.59185       -4.27058
C         12.77850       -5.67891       -5.69834
C         11.82690       -4.60217       -6.17992
C         12.02568       -8.74010       -1.47857
C         11.90195       -9.37175       -0.09153
O         10.50400       -9.41607        0.24715
C         10.21765      -10.01249        1.53376
C          8.71386      -10.06138        1.71189
H          2.32982      -11.07007        8.02036
H          1.93985      -10.70031        6.33008
H          1.85965       -9.42386        7.55863
H          4.44572      -10.87341        6.68574
H          4.36450       -9.60375        7.90256
H          3.52352       -7.98958        6.15632
H          3.60434       -9.26357        4.94373
H          6.09973       -9.46507        5.35381
H          6.00113       -8.14110        6.51228
H          5.13872       -6.62206        4.67826
H          5.25098       -7.95618        3.53497
H          7.75053       -8.09903        4.01238
H          7.60849       -6.67765        5.04157
H          6.80315       -5.31726        3.09547
H          6.82915       -6.74460        2.06659
H          9.31050       -6.95878        2.43859
H          9.30051       -5.49382        3.41132
H          8.46953       -4.15195        1.47088
H          8.37000       -5.58421        0.48117
H         10.94245       -4.35612        1.68055
H         10.42710       -4.18473        0.00666
H         11.22029       -6.79931        1.40179
H          9.75667       -6.35681       -0.98590
H         10.12782       -7.81801       -0.19576
H         11.03195       -7.19895       -2.62811
H         12.06953       -5.24580       -1.97240
H         12.97983       -4.86841        0.23810
H         13.34761       -6.58174        0.47255
H         14.49351       -7.10149       -1.76513
H         14.47966       -5.36605       -2.06237
H         13.41214       -7.57442       -3.92840
H         14.77711       -6.46756       -4.19533
H         12.41662       -6.68690       -5.98095
H         13.78088       -5.55023       -6.14813
H         10.82610       -4.73579       -5.74649
H         11.73150       -4.64409       -7.27304
H         12.19432       -3.60441       -5.90641
H         13.07623       -8.80735       -1.79078
H         11.45884       -9.37623       -2.17251
H         12.46453       -8.81856        0.68388
H         12.30787      -10.39677       -0.11930
H         10.70313       -9.41440        2.32686
H         10.65785      -11.02361        1.55518
H          8.27159       -9.05639        1.67036
H          8.46832      -10.49141        2.69154
H          8.24566      -10.68163        0.93714
