66

O          4.01992       -0.10168       -2.06835
C          3.23469        1.05849       -1.89429
C          1.69427        0.78395       -1.65528
N          1.31547       -0.15399       -2.75809
C          1.84931       -1.33231       -2.87465
C          1.63619       -1.94962       -4.21066
C          1.00446       -0.78128       -5.02939
C          0.46119        0.18286       -3.95520
C         -1.02670       -0.04119       -3.62556
C         -1.96054        0.52888       -4.69800
C         -1.94866        2.06764       -4.69096
O         -1.52778        2.69343       -3.71662
N         -2.44752        2.64178       -5.82523
C         -2.63517        4.01263       -6.13874
C         -3.11924        4.30501       -7.42462
C         -3.33466        5.62578       -7.81017
C         -3.06964        6.66939       -6.91849
C         -2.58988        6.37417       -5.64081
C         -2.36839        5.05556       -5.23717
C          2.97902       -2.36070       -4.81976
O          4.01457       -1.76995       -4.61346
C          2.96339       -3.54758       -5.84182
C          3.47784       -4.92621       -5.27565
C          2.80314       -5.45832       -3.96265
C          1.27567       -5.77380       -4.06852
O          0.45320       -4.90375       -3.91328
O          0.96413       -7.04047       -4.33926
F          3.47984       -6.58969       -3.60116
F          2.98658       -4.52009       -2.98536
F          3.29150       -5.86656       -6.24140
F          4.80147       -4.80040       -5.02783
F          1.69302       -3.71974       -6.32024
F          3.76888       -3.22475       -6.87976
C          1.39052        0.19876       -0.22535
C         -0.08739       -0.18061       -0.04772
C          2.28508       -0.93644        0.30538
C          1.00209        2.14438       -1.80611
H          4.27393       -0.21490       -3.00152
H          3.33241        1.73887       -2.75306
H          3.59248        1.58587       -0.99653
H          2.39898       -1.79278       -2.06111
H          0.97783       -2.83208       -4.13417
H          0.21998       -1.14056       -5.70311
H          1.77254       -0.28292       -5.63602
H          0.63056        1.23350       -4.21627
H         -1.26812        0.44816       -2.67504
H         -1.21140       -1.11883       -3.49658
H         -2.98781        0.19743       -4.47762
H         -1.72544        0.13870       -5.70113
H         -2.75083        2.00165       -6.55414
H         -3.33199        3.49185       -8.12351
H         -3.71239        5.83831       -8.81047
H         -3.23837        7.70350       -7.21864
H         -2.38500        7.18137       -4.93664
H         -1.99740        4.83101       -4.24169
H          1.76390       -7.60277       -4.36844
H          1.58936        1.07112        0.41959
H         -0.35983       -1.05042       -0.66486
H         -0.77379        0.64106       -0.28630
H         -0.27084       -0.46270        0.99684
H          2.02520       -1.91687       -0.12168
H          2.11472       -1.03038        1.38640
H          3.35602       -0.76277        0.15331
H          1.24881        2.63577       -2.75494
H          1.36137        2.79715       -1.00054
H         -0.08843        2.10019       -1.73891
