58

C          4.98552       -1.52590       -3.86600
C          4.91530       -1.14409       -2.38640
C          5.38087       -2.27945       -1.46191
C          5.30147       -1.85919       -0.00546
O          5.68697       -2.96450        0.90382
C          6.96391       -3.04858        1.24741
O          7.88287       -2.34199        0.87923
C          7.14873       -4.17962        2.28770
N          8.56446       -4.51167        2.42607
C          9.47202       -3.60839        2.71760
S         11.09293       -4.05446        2.50506
C         10.55791       -5.56900        1.54796
C          9.13001       -5.84869        2.06505
C          9.11828       -6.80908        3.26878
C          7.73953       -7.07810        3.88252
O          6.72092       -7.35533        2.91445
C          6.41522       -8.71331        2.64486
C          7.06842       -9.21749        1.35501
F          6.81591       -8.38555        0.31169
F          8.42912       -9.30471        1.46322
F          6.60320      -10.44253        1.04519
C         10.66637       -5.29638        0.04704
C         12.10619       -5.11405       -0.45141
C         12.19203       -4.74903       -1.94262
C         11.79024       -3.29651       -2.22262
S         11.73002       -2.99188       -3.99875
O         13.06130       -3.11279       -4.55461
O         10.60961       -3.72415       -4.53446
O         11.32226       -1.41620       -4.01745
H          4.64785       -0.69697       -4.50141
H          4.34822       -2.39453       -4.08502
H          6.01254       -1.77934       -4.16539
H          3.88218       -0.86173       -2.12533
H          5.53441       -0.25025       -2.20529
H          6.41815       -2.55462       -1.71066
H          4.75573       -3.17231       -1.62047
H          4.27287       -1.63189        0.29984
H          5.95310       -1.00287        0.21151
H          6.59161       -5.08169        2.00987
H          6.74177       -3.81893        3.24515
H          9.19679       -2.62126        3.08764
H         11.23441       -6.37884        1.85460
H          8.51267       -6.25904        1.25291
H          9.77500       -6.41760        4.06311
H          9.56281       -7.74990        2.91586
H          7.38666       -6.19301        4.43508
H          7.81865       -7.90102        4.61120
H          5.32756       -8.79233        2.50355
H          6.71541       -9.38217        3.46745
H         10.04486       -4.42154       -0.20528
H         10.21457       -6.16141       -0.46892
H         12.66040       -6.05087       -0.28481
H         12.62132       -4.33934        0.14276
H         11.55308       -5.42860       -2.52782
H         13.22111       -4.90313       -2.29490
H         12.51405       -2.58377       -1.80325
H         10.78520       -3.04405       -1.85671
H         12.09712       -0.92479       -4.35278
