89

C          0.82755        0.02217       -0.19191
C          2.35500        0.08150       -0.10842
C          2.88121        0.20303        1.32606
C          4.40921        0.25858        1.41982
C          4.93498        0.38097        2.85373
C          6.46346        0.42638        2.94436
C          6.99588        0.55046        4.37576
C          8.52537        0.57605        4.45517
C          9.07500        0.70035        5.88004
C         10.60553        0.68635        5.93757
C         11.18403        0.82761        7.34949
C         12.71398        0.75560        7.37477
C         13.33387        0.95378        8.76206
C         14.86109        0.83266        8.74778
C         15.52577        1.10882       10.10026
C         17.05521        1.02799       10.03003
C         17.73741        1.37898       11.35755
C         19.25678        1.42529       11.17616
N         20.02912        1.71193       12.40243
C         20.81301        0.90470       13.15762
N         21.40481        1.64250       14.11029
N         21.01163        2.89410       13.96000
N         20.19575        2.95665       12.92782
C         19.47076        4.17533       12.55751
C         18.49273        4.73670       13.70984
N         17.64605        3.72231       14.30993
N         19.34975        5.40891       14.66358
N         17.64285        5.74697       13.13267
C         20.96848       -0.56085       13.03842
C         19.72138       -1.30062       13.62025
O         18.68518       -0.66473       13.76755
C         19.85299       -2.73341       13.95064
C         18.74011       -3.37502       14.53330
C         18.80694       -4.72279       14.86634
C         19.97857       -5.44874       14.61707
C         21.08615       -4.82362       14.03511
C         21.02830       -3.47094       13.70665
H          0.48255       -0.06516       -1.23148
H          0.36879        0.92665        0.23501
H          0.43062       -0.84095        0.36320
H          2.72415        0.93435       -0.70315
H          2.78529       -0.82003       -0.57686
H          2.50968       -0.64895        1.92285
H          2.45305        1.10680        1.79508
H          4.78072        1.10950        0.82170
H          4.83596       -0.64613        0.95158
H          4.55935       -0.46691        3.45349
H          4.51399        1.28897        3.32057
H          6.83953        1.27202        2.34166
H          6.88238       -0.48326        2.47864
H          6.61298       -0.28945        4.98200
H          6.58888        1.46639        4.83940
H          8.90794        1.41278        3.84423
H          8.92731       -0.34190        3.99075
H          8.67837       -0.12355        6.49911
H          8.69761        1.63115        6.33902
H         11.00101        1.49861        5.30227
H         10.97482       -0.25212        5.48723
H         10.76872        0.03738        7.99918
H         10.85219        1.78524        7.78791
H         13.12392        1.51626        6.68687
H         13.03618       -0.21946        6.96882
H         12.91157        0.21624        9.46651
H         13.04699        1.94576        9.15306
H         15.27054        1.53264        7.99812
H         15.14339       -0.17681        8.40203
H         15.15136        0.39761       10.85592
H         15.23041        2.11310       10.45282
H         17.41319        1.71050        9.23895
H         17.35735        0.01398        9.71734
H         17.49311        0.64960       12.14182
H         17.37310        2.35872       11.70375
H         19.55986        2.17202       10.42677
H         19.63045        0.45318       10.82894
H         18.88866        3.95047       11.66049
H         20.22409        4.94107       12.33376
H         18.15833        2.98749       14.79336
H         16.94520        3.31400       13.69309
H         20.08454        4.80107       15.02780
H         18.77558        5.73236       15.44402
H         16.97481        5.41654       12.43960
H         18.16804        6.55045       12.79518
H         21.88159       -0.83308       13.58197
H         21.10233       -0.87452       11.99096
H         17.83747       -2.79345       14.71897
H         17.94740       -5.21352       15.32321
H         20.02914       -6.50594       14.87957
H         21.99631       -5.39124       13.84240
H         21.90459       -3.00276       13.25730
