78

C          1.01194        1.78113       -0.46303
C          2.45385        1.28976       -0.31401
C          2.95810        0.50062       -1.52787
C          4.40066        0.00792       -1.37900
C          4.92228       -0.77472       -2.58892
C          6.36015       -1.27055       -2.40740
C          6.92626       -2.02829       -3.61306
C          8.35610       -2.52651       -3.37949
C          8.99151       -3.22449       -4.58685
C         10.42025       -3.70013       -4.30479
C         11.11977       -4.35068       -5.50430
C         12.56238       -4.75497       -5.17625
C         13.33383       -5.51177       -6.28134
C         13.40234       -4.74160       -7.60293
N         14.28420       -3.52031       -7.44437
N         14.14719       -2.66999       -8.60807
C         15.69958       -3.90275       -7.04974
C         15.69381       -4.69167       -5.73863
C         14.76162       -5.90805       -5.84615
C         17.12672       -5.06025       -5.31220
C         17.99500       -3.84062       -4.99133
O         17.22820       -2.97290       -4.17244
C         17.94753       -1.83589       -3.67643
C         17.00545       -1.03070       -2.79565
C         17.64281        0.23651       -2.21556
C         16.67898        1.03094       -1.32519
C         17.29808        2.30113       -0.73812
H          0.68328        2.34002        0.42407
H          0.31535        0.94092       -0.60208
H          0.90364        2.44630       -1.33276
H          2.53707        0.65874        0.58730
H          3.12116        2.15109       -0.13983
H          2.87700        1.13115       -2.43116
H          2.29207       -0.36275       -1.70340
H          4.47678       -0.62526       -0.47725
H          5.06284        0.87248       -1.19422
H          4.86344       -0.13828       -3.48959
H          4.25870       -1.63540       -2.78399
H          6.40851       -1.92034       -1.51571
H          7.01465       -0.40898       -2.18490
H          6.90535       -1.37187       -4.50104
H          6.27171       -2.88404       -3.85409
H          8.36316       -3.21536       -2.51657
H          8.99123       -1.67193       -3.08491
H          8.99628       -2.53367       -5.44874
H          8.36898       -4.08400       -4.89039
H         10.40930       -4.41408       -3.46338
H         11.02361       -2.84112       -3.95968
H         11.09282       -3.64225       -6.35231
H         10.55209       -5.23768       -5.83390
H         12.56021       -5.40378       -4.28594
H         13.11896       -3.85523       -4.85106
H         12.76988       -6.42995       -6.51389
H         12.42905       -4.37023       -7.94319
H         13.85928       -5.34184       -8.40359
H         13.88068       -2.97676       -6.66542
H         14.44992       -3.22067       -9.41855
H         14.81186       -1.89586       -8.50357
H         16.26108       -2.96283       -6.95975
H         16.10115       -4.48517       -7.89372
H         15.31804       -4.01506       -4.95383
H         14.71998       -6.41894       -4.87379
H         15.17871       -6.63600       -6.56320
H         17.62358       -5.67415       -6.08119
H         17.04722       -5.68586       -4.41084
H         18.32141       -3.31478       -5.91427
H         18.91647       -4.16574       -4.47401
H         18.31703       -1.22756       -4.52614
H         18.83123       -2.17718       -3.10457
H         16.65018       -1.67976       -1.97888
H         16.11483       -0.75922       -3.38834
H         17.99940        0.88365       -3.03595
H         18.53907       -0.03410       -1.63105
H         16.32410        0.38058       -0.50805
H         15.78180        1.29494       -1.91131
H         18.17073        2.06812       -0.11036
H         16.57666        2.84421       -0.11294
H         17.63391        2.98730       -1.52971
