54

N          0.95955        0.27189       -0.46249
C          2.34286        0.31799       -0.00619
C          3.16196       -0.40911       -1.08672
N          4.66781       -0.56350       -0.85166
C          5.38220        0.70869       -0.34319
C          6.89220        0.45594       -0.24948
C          7.27550       -0.82417        0.49338
C          6.56451       -2.02406       -0.13128
C          5.04430       -1.86364       -0.11280
C          4.42947       -1.94691        1.29701
O          4.97640       -3.10002        1.88444
C          4.39292       -3.41451        3.16522
C          5.07891       -4.65084        3.70814
C          5.05382        1.86905       -1.29051
C          5.57537        3.21079       -0.75388
C          4.83982        4.45705       -1.26131
C          5.27965        5.09725       -2.63262
C          5.12896        4.31161       -3.99352
C          3.70066        3.84191       -4.45539
F          2.80990        4.83578       -4.38135
F          3.77968        3.40725       -5.72197
F          3.26687        2.80786       -3.68828
F          5.60687        5.12974       -4.95671
F          5.92762        3.19823       -3.94314
F          4.61281        6.26737       -2.77026
F          6.61492        5.36443       -2.52197
F          3.48212        4.24012       -1.30459
F          5.05312        5.45313       -0.34613
H          0.42408        1.07000       -0.12868
H          0.47800       -0.57400       -0.16062
H          2.51281       -0.12063        0.99228
H          2.64513        1.37193        0.05701
H          3.03190        0.11705       -2.03964
H          2.78087       -1.43026       -1.22517
H          5.05835       -0.71143       -1.79370
H          4.96188        0.89560        0.65600
H          7.34189        1.33320        0.23614
H          7.30545        0.42928       -1.27378
H          7.02603       -0.74298        1.56269
H          8.36311       -0.96533        0.44340
H          6.79854       -2.95410        0.40007
H          6.89919       -2.16157       -1.17416
H          4.58756       -2.65581       -0.72484
H          3.32794       -2.03145        1.23003
H          4.65437       -1.04370        1.90135
H          3.30707       -3.58135        3.03527
H          4.52389       -2.55128        3.84449
H          4.94654       -5.50369        3.02974
H          4.64951       -4.91841        4.68255
H          6.15405       -4.47558        3.84527
H          3.97152        1.95960       -1.42456
H          5.48343        1.65465       -2.27964
H          6.64754        3.35080       -0.94260
H          5.43452        3.25453        0.33772
