62

S          3.55277        5.82120        1.80648
C          3.82797        4.19793        2.61007
C          4.22865        3.10468        1.63941
O          4.19624        1.92763        1.91312
O          4.64889        3.61125        0.44088
C          5.10650        2.65573       -0.55909
C          4.60729        3.13828       -1.93131
C          3.10215        3.24401       -1.99483
C          2.34597        2.09418       -2.14878
C          0.94755        2.13623       -2.18810
C          0.22222        3.33028       -2.07743
C          0.94213        4.56299       -1.91235
C          2.39498        4.48720       -1.87778
C          3.12149        5.67842       -1.72704
N          2.48864        6.84719       -1.64606
C          1.12969        6.97002       -1.66507
C          0.32002        5.85918       -1.77704
C         -1.17602        6.07284       -1.73744
C         -1.65502        7.47612       -1.35973
O         -1.30313        8.41535       -2.36540
Si        -1.99792        9.95883       -2.51645
C         -1.38366       11.04813       -1.11041
C         -1.38323       10.56598       -4.17666
C         -3.87023        9.81842       -2.47029
C         -1.19331        3.19821       -2.16000
C         -2.36926        2.91522       -2.25687
C          6.63735        2.62061       -0.43770
O          7.23347        1.84332       -1.49554
C          7.80760        2.56039       -2.51624
O          7.81617        3.77126       -2.57336
C          8.38337        1.63953       -3.56530
S          7.11764        1.28686       -4.84933
H          3.12025        6.44252        2.92823
H          2.92387        3.85949        3.12891
H          4.63514        4.28256        3.35221
H          4.67683        1.67405       -0.31290
H          4.93830        2.40029       -2.67814
H          5.11768        4.07200       -2.19813
H          2.84602        1.12933       -2.24936
H          0.38695        1.21057       -2.31832
H          4.20543        5.71087       -1.66890
H          3.04601        7.69431       -1.54265
H          0.73191        7.98107       -1.62686
H         -1.61236        5.36370       -1.01934
H         -1.60388        5.80392       -2.71581
H         -1.23024        7.76927       -0.37875
H         -2.74983        7.42701       -1.23019
H         -0.28877       11.15010       -1.12612
H         -1.67651       10.65886       -0.12462
H         -1.80553       12.06036       -1.19583
H         -0.28532       10.59474       -4.21549
H         -1.74851       11.58355       -4.37619
H         -1.73507        9.91780       -4.99092
H         -4.24633        9.47228       -1.49715
H         -4.24495        9.13666       -3.24660
H         -4.32005       10.80539       -2.65364
H         -3.41567        2.70108       -2.33754
H          6.91758        2.12676        0.50138
H          7.03583        3.64371       -0.46329
H          8.75267        0.70053       -3.14119
H          9.19663        2.16375       -4.07896
H          6.57411        0.21494       -4.22706
