72

O          1.36716       -0.48639       -0.87236
C          2.77924       -0.55858       -0.70495
C          3.15230        0.59500        0.21549
O          4.57706        0.57969        0.37250
C          5.04646        1.50608        1.31505
C          6.56380        1.29087        1.40300
N          7.21620        2.15712        2.38285
C          7.64989        3.41258        2.16162
N          7.43039        4.00849        0.97648
C          8.19300        5.18440        0.50987
O          9.16967        5.50989        1.45437
C          8.62084        5.50605        2.77610
N          8.32235        4.08893        3.11955
C          8.89179        3.38700        4.28425
C          7.89281        3.14162        5.43232
C          8.62933        2.90605        6.75554
S          7.57044        2.33348        8.10841
C          6.81224        3.83038        8.68101
S          7.04376        5.32796        8.03732
N          5.99200        3.60035        9.78530
C          5.69329        2.37599       10.40882
N          4.89190        2.53185       11.42255
C          4.63996        3.90105       11.49718
C          5.29407        4.57578       10.50990
C          9.60921        6.22364        3.68090
C          8.99950        6.68138        5.01224
C          9.80127        7.74322        5.77672
C         10.84372        7.27048        6.86485
C         12.07166        6.35615        6.48543
C         13.19097        6.82106        5.47518
C         14.04890        8.12489        5.73234
C         14.87828        8.23507        7.06669
F         15.62593        7.13343        7.25469
F         15.68608        9.30200        6.97072
F         14.06791        8.40185        8.12560
F         14.93771        8.16626        4.70608
F         13.23744        9.20624        5.64568
F         14.04690        5.77225        5.37886
F         12.60221        6.99294        4.25555
F         12.68027        6.01944        7.64468
F         11.55152        5.19887        5.94255
F         11.31973        8.37275        7.48784
F         10.14216        6.53127        7.77589
F         10.43350        8.60143        4.91848
F          8.90414        8.48972        6.49968
H          1.08073       -1.22518       -1.42985
H          3.31600       -0.44981       -1.66468
H          3.09247       -1.51114       -0.24137
H          2.65580        0.47355        1.19532
H          2.82090        1.55437       -0.22271
H          4.58522        1.34865        2.31170
H          4.80622        2.55084        1.01636
H          7.03273        1.42966        0.41773
H          6.76307        0.25132        1.69323
H          7.19530        1.85617        3.35151
H          6.77630        3.57756        0.33159
H          7.48477        6.01612        0.33757
H          8.71756        4.94103       -0.42478
H          7.65595        6.04801        2.76355
H          9.72263        3.99937        4.64773
H          9.34345        2.44489        3.93585
H          7.24190        2.27407        5.23260
H          7.23158        4.01262        5.54171
H          9.13874        3.82023        7.09485
H          9.37753        2.10303        6.66714
H          6.09846        1.43168       10.05679
H          3.99896        4.30958       12.27175
H          5.35987        5.62160       10.24064
H          9.90723        7.11013        3.10578
H         10.51996        5.62542        3.80090
H          8.78184        5.86227        5.71050
H          8.03370        7.17108        4.81367
