113

C          0.51233       -0.72004       -1.17742
C          2.02997       -0.53512       -1.09912
C          2.66466       -1.23332        0.10908
C          4.18198       -1.04252        0.20607
C          4.80084       -1.69854        1.44452
C          6.31434       -1.48835        1.56563
C          6.90358       -2.08868        2.84606
C          8.41235       -1.86558        3.00110
C          8.94992       -2.39910        4.33327
C         10.45453       -2.17230        4.52928
C         10.87814       -2.61266        5.93269
N         12.30680       -2.39608        6.21475
N         13.19668       -3.39928        5.97966
C         14.35600       -2.89163        6.32045
N         14.22925       -1.60080        6.76675
C         12.90666       -1.28988        6.68323
C         12.26383        0.01391        6.99070
C         11.51104        0.05745        8.33352
O         10.91230        1.32873        8.39599
C         10.03045        1.46393        9.51558
C          9.39651        2.84416        9.42625
O          8.40752        2.88399       10.44230
C          7.60381        4.00408       10.51066
C          6.57139        3.95356       11.45617
C          5.70182        5.02766       11.58782
C          5.81719        6.18447       10.79142
C          6.87278        6.21664        9.87445
C          7.76121        5.14423        9.72045
C          4.79683        7.32182       10.92038
C          3.37187        6.87790       10.44120
C          3.06814        6.20880        9.06397
C          3.62929        6.98255        7.85593
C          3.56557        4.74968        8.99107
C          1.52758        6.18906        8.94716
C          4.65333        7.70637       12.41522
C          5.25697        8.60273       10.19470
C         15.31350       -0.75281        7.29292
C         15.32876       -0.62548        8.83422
O         15.82268       -1.79403        9.47820
C         14.93616       -2.90327        9.73245
C         13.56730       -2.55477       10.26982
C         13.40852       -1.68085       11.35811
C         12.13678       -1.40782       11.86540
C         11.00854       -2.02345       11.31034
C         11.15842       -2.90900       10.24065
C         12.43031       -3.15937        9.71543
C         16.25718        0.51675        9.23512
H          0.08687       -0.20042       -2.04696
H          0.01516       -0.32453       -0.27890
H          0.24256       -1.78337       -1.26185
H          2.26855        0.54152       -1.05988
H          2.49684       -0.91327       -2.02440
H          2.43254       -2.31246        0.07068
H          2.19156       -0.85752        1.03389
H          4.41213        0.03772        0.21504
H          4.66197       -1.44532       -0.70308
H          4.58201       -2.78082        1.43484
H          4.30733       -1.30023        2.34879
H          6.53476       -0.40663        1.53666
H          6.81920       -1.92376        0.68568
H          6.69041       -3.17143        2.87617
H          6.38363       -1.65488        3.71857
H          8.63285       -0.78638        2.92564
H          8.94789       -2.34631        2.16470
H          8.73018       -3.47712        4.41523
H          8.40055       -1.91300        5.15887
H         10.69242       -1.10532        4.38570
H         11.03396       -2.73319        3.77997
H         10.71783       -3.68801        6.07941
H         10.30958       -2.07837        6.70553
H         15.30357       -3.41739        6.26281
H         11.55030        0.25606        6.18950
H         13.02428        0.80663        6.98294
H         12.20295       -0.11156        9.17835
H         10.74934       -0.74328        8.38102
H         10.58351        1.34238       10.46443
H          9.24204        0.68954        9.47691
H          8.94725        2.98042        8.42597
H         10.15863        3.63030        9.57301
H          6.46261        3.06141       12.07350
H          4.89668        4.94837       12.31882
H          7.02074        7.09116        9.24247
H          8.56338        5.22227        8.98753
H          2.74468        7.78389       10.50776
H          2.97011        6.19203       11.20659
H          4.72485        6.92743        7.80571
H          3.33587        8.04204        7.87566
H          3.24042        6.54987        6.92178
H          4.65935        4.68125        8.95169
H          3.16699        4.26449        8.08733
H          3.22460        4.16713        9.85965
H          1.11518        7.20867        8.93390
H          1.06912        5.65298        9.79164
H          1.21297        5.68607        8.02102
H          4.27912        6.87515       13.02717
H          3.94567        8.54039       12.52669
H          5.62146        8.02264       12.82848
H          5.40229        8.47419        9.11713
H          6.19883        8.97593       10.62274
H          4.50027        9.38845       10.32681
H         15.21423        0.23910        6.83155
H         16.25835       -1.19289        6.94832
H         14.30344       -0.40705        9.18075
H         15.49056       -3.50155       10.47053
H         14.82340       -3.53492        8.83439
H         14.28818       -1.21952       11.81141
H         12.02507       -0.72652       12.70972
H         10.01868       -1.82043       11.72016
H         10.28556       -3.40982        9.81876
H         12.54809       -3.86430        8.88825
H         17.28525        0.32227        8.89960
H         16.27074        0.60668       10.32734
H         15.92307        1.47357        8.81184
