40

C          0.79448        0.17963       -0.44413
O          2.17502       -0.18660       -0.25421
C          2.84831       -0.41711       -1.46255
P          4.65443       -0.53630       -1.11004
C          5.10847       -1.77446        0.19311
C          6.66278       -2.03503        0.10862
C          7.52188       -0.77152        0.28811
C          7.14218       -3.12284        1.08736
C          4.65118       -1.11753        1.54210
O          4.72103       -2.07287        2.59047
C          4.29554       -3.05222       -0.09567
C          5.50437       -0.84599       -2.70398
C          5.17412        0.07514       -3.89163
C          5.53324        1.53956       -3.67717
F          6.80591        1.68469       -3.22920
F          5.39826        2.24579       -4.81028
F          4.71684        2.11741       -2.73459
H          0.38697        0.34999        0.55738
H          0.23695       -0.63164       -0.93841
H          0.71477        1.10430       -1.03756
H          2.73306        0.42271       -2.17530
H          2.52746       -1.34733       -1.97349
H          5.01587        0.75125       -0.65734
H          6.84644       -2.43395       -0.90459
H          7.46662       -0.38426        1.31428
H          7.26525        0.05758       -0.39007
H          8.57444       -1.01512        0.09522
H          7.01537       -2.81689        2.13207
H          8.21071       -3.30402        0.91000
H          6.62299       -4.07784        0.94749
H          3.63070       -0.72237        1.43355
H          5.31689       -0.26947        1.77565
H          3.87069       -2.10177        3.05240
H          4.59987       -3.53382       -1.03554
H          3.21462       -2.86045       -0.12401
H          4.47016       -3.76596        0.71671
H          5.26105       -1.88482       -2.97228
H          6.58105       -0.81871       -2.48857
H          4.11554        0.02935       -4.18031
H          5.75461       -0.27105       -4.75812
