71

F          1.27052        2.35166       -0.96537
C          1.68921        2.49991        0.30169
C          1.19876        1.30552        1.20273
C          1.41429       -0.17735        0.69408
C          2.85195       -0.72501        0.32689
C          4.02141       -0.77035        1.39196
C          3.90274       -1.60151        2.73337
C          3.60687       -3.15311        2.74997
C          4.59592       -4.18489        2.07765
C          6.01374       -4.28219        2.65850
C          7.08280       -3.43032        1.96108
C          8.44998       -3.48263        2.63458
O          8.91441       -4.85630        2.85012
C          8.90939       -5.15208        4.19598
N          9.24645       -3.82682        4.90463
C          8.50905       -2.82294        4.03547
C         10.78064       -3.50948        4.95569
O         11.35891       -3.34788        3.93409
C         11.41255       -3.10389        6.34482
C         10.62304       -3.28894        7.70458
C         10.35251       -4.72053        8.29517
C         11.61418       -5.60241        8.55689
O         12.65339       -5.06502        8.83943
O         11.44542       -6.91869        8.48615
F          9.69302       -4.54029        9.46363
F          9.45545       -5.34218        7.42450
F         11.22777       -2.53766        8.62590
F          9.36087       -2.73488        7.46175
F         12.61912       -3.67809        6.40082
F         11.56103       -1.75107        6.20985
C          9.98781       -6.20985        4.50129
O         10.96817       -5.92639        5.14687
C          9.78568       -7.64240        3.90902
C          9.75984       -8.78891        4.99539
C          8.49098       -8.73724        5.92997
C          8.76386       -9.27079        7.37400
O          9.26431       -8.55576        8.20850
O          8.41605      -10.53202        7.60273
F          8.10244       -7.42371        6.04345
F          7.47270       -9.42598        5.34855
F          9.77656       -9.97666        4.35427
F         10.87698       -8.68487        5.75481
F          8.61726       -7.69206        3.20924
F         10.81794       -7.88172        3.07197
F          3.98291       -5.39705        2.27970
F          4.62404       -3.97001        0.73062
F          3.58116       -3.47833        4.08341
F          2.37380       -3.35675        2.24323
F          5.12170       -1.42990        3.36215
F          2.96427       -1.02009        3.50680
F          5.10736       -1.25125        0.71468
F          4.30732        0.49636        1.77634
F          2.66874       -1.99284       -0.12225
F          3.33073        0.02228       -0.70071
F          0.89714       -0.98413        1.65825
F          0.67976       -0.33513       -0.43402
F          1.77874        1.43759        2.42426
F         -0.14300        1.43803        1.34567
F          3.03302        2.58816        0.31308
F          1.18431        3.63925        0.80020
H          6.27943       -5.34455        2.56096
H          5.93022       -4.06395        3.73356
H          6.79586       -2.37175        1.90220
H          7.20262       -3.77008        0.92410
H          9.20635       -3.03745        1.97513
H          7.92600       -5.45359        4.60634
H          8.87529       -3.82392        5.86803
H          9.05250       -1.87282        4.03644
H          7.51857       -2.67336        4.48216
H         10.52211       -7.23058        8.32089
H          7.95839      -10.92768        6.83394
