47

C          8.42831       -1.59123        5.09344
C          8.71807       -1.25697        3.62850
C          7.81619       -2.01695        2.64730
C          8.11486       -1.67990        1.17944
C          7.19492       -2.43360        0.23191
O          7.43073       -2.01831       -1.16603
C          8.32190       -2.67861       -1.88193
O          8.92617       -3.67685       -1.46477
C          8.52504       -2.01465       -3.23460
C          9.17996       -2.79318       -4.39565
C          8.47030       -4.08679       -4.91380
C          6.94237       -4.11773       -4.80898
C          6.23988       -3.13693       -5.75926
C          4.76429       -2.97194       -5.43911
F          4.63231       -2.41024       -4.15254
C          9.15148       -5.26448       -4.16757
N         10.31103       -4.64529       -3.42870
C         10.61274       -3.31839       -4.11563
C         11.48666       -2.49635       -3.30486
C         12.21066       -1.80971       -2.62325
H          9.09118       -1.03256        5.76734
H          8.57387       -2.66217        5.29759
H          7.39258       -1.33970        5.36466
H          9.77319       -1.48309        3.39941
H          8.59723       -0.17312        3.46504
H          6.76039       -1.78655        2.87098
H          7.93330       -3.10228        2.80963
H          9.16301       -1.93009        0.94780
H          7.99407       -0.59805        1.01111
H          6.14049       -2.17936        0.39306
H          7.32846       -3.52071        0.29705
H          9.14739       -1.12761       -3.02691
H          7.55350       -1.61529       -3.55380
H          9.25338       -2.07315       -5.22145
H          8.73982       -4.17638       -5.97847
H          6.63288       -3.91712       -3.77079
H          6.59525       -5.13943       -5.03284
H          6.33521       -3.48296       -6.80144
H          6.70787       -2.13992       -5.72199
H          4.23039       -3.93549       -5.42878
H          4.26936       -2.29230       -6.14738
H          9.52381       -6.03682       -4.84920
H          8.49788       -5.73016       -3.41999
H         11.13412       -5.24996       -3.34615
H          9.92272       -4.35850       -2.46208
H         11.09945       -3.55646       -5.07527
H         12.86238       -1.20272       -2.02670
