46

C          0.47516        0.23813        1.00761
C          1.98459        0.43359        1.16837
C          2.77888       -0.84614        0.86799
C          4.28163       -0.62998        1.05013
S          5.13896       -2.19729        0.62533
C          6.74635       -1.81121        1.11439
N          7.25361       -0.71181        1.62369
N          8.59954       -0.97250        1.84960
C          8.82074       -2.19117        1.46835
O          7.69128       -2.80970        0.97368
C         10.10377       -2.97528        1.56507
C         11.30221       -2.04134        1.73185
C         12.62438       -2.76177        2.00722
O         13.64973       -1.86163        1.64615
C         14.95919       -2.32720        2.00383
C         15.97410       -1.29052        1.56524
O         10.10678       -3.88635        2.66632
C          9.24351       -4.99304        2.49406
N          9.68657       -5.77763        1.33500
C         10.17928       -5.12031        0.27185
N         10.59029       -5.79994       -0.81403
N         10.25678       -3.78875        0.31674
H         -0.06803        1.16854        1.21849
H          0.09539       -0.53190        1.69496
H          0.21779       -0.07270       -0.01553
H          2.20936        0.76785        2.19439
H          2.32911        1.24003        0.50091
H          2.56853       -1.17428       -0.16382
H          2.43822       -1.65742        1.53220
H          4.54066       -0.37754        2.08663
H          4.66938        0.15610        0.38892
H         11.06405       -1.32697        2.52963
H         11.40796       -1.44451        0.81256
H         12.70603       -3.70041        1.41582
H         12.69858       -3.04753        3.07235
H         15.14995       -3.30223        1.51324
H         15.00327       -2.49111        3.09714
H         15.93445       -1.13596        0.47907
H         16.98752       -1.62119        1.82845
H         15.78771       -0.32859        2.05986
H          8.19877       -4.67930        2.34949
H          9.33193       -5.61279        3.39203
H          9.95265       -6.74825        1.46653
H         10.29247       -6.75523       -0.97071
H         11.08411       -5.33601       -1.56670
H         10.46992       -3.27632       -0.53437
