84

C         24.97948      -10.03561        2.54035
C         24.52941       -9.23537        1.31526
C         23.00639       -9.10465        1.20052
C         22.54666       -8.30960       -0.02602
C         21.02399       -8.18726       -0.14299
C         20.55891       -7.39280       -1.36836
C         19.03505       -7.27582       -1.47295
C         18.55098       -6.45701       -2.67479
C         17.02586       -6.32278       -2.73286
C         16.52055       -5.42303       -3.86525
C         14.99627       -5.25237       -3.84737
C         14.46378       -4.23568       -4.83695
O         14.70199       -4.73026       -6.18769
C         14.41934       -3.78817       -7.18025
P         15.26327       -4.49944       -8.64277
C         14.76977       -3.58368      -10.07706
N         13.95180       -2.56460      -10.03641
N         13.81712       -2.11741      -11.32428
C         14.57604       -2.90197      -12.08004
O         15.22113       -3.87134      -11.33796
S         14.84536       -2.86496      -13.77002
C         13.83037       -1.39215      -14.19852
C         14.00205       -1.07875      -15.68365
C         13.24245        0.20815      -16.03643
C         13.40372        0.63855      -17.49780
C         12.75088        1.99514      -17.78207
C         12.89300        2.46221      -19.23434
C         12.30172        3.85332      -19.47529
C         17.02556       -4.56121       -8.41859
N         17.79818       -3.53289       -8.20363
N         19.07440       -4.01990       -8.06291
C         18.99227       -5.33635       -8.20795
O         17.70201       -5.75692       -8.43850
S         20.21902       -6.53411       -8.15782
C         21.69366       -5.47627       -7.84627
C         22.92474       -6.37738       -7.83896
H         26.07429      -10.11228        2.59190
H         24.57593      -11.05896        2.51959
H         24.63577       -9.56512        3.47359
H         24.92172       -9.71069        0.39996
H         24.97823       -8.22794        1.34732
H         22.61239       -8.62628        2.11466
H         22.55618      -10.11281        1.17190
H         22.94566       -8.78622       -0.93918
H         22.99257       -7.29963        0.00619
H         20.62576       -7.71080        0.77005
H         20.57824       -9.19707       -0.17305
H         20.95510       -7.86735       -2.28393
H         21.00113       -6.38118       -1.33598
H         18.64420       -6.81779       -0.54744
H         18.59291       -8.28653       -1.51672
H         18.91853       -6.91792       -3.60934
H         19.00297       -5.45005       -2.63393
H         16.66546       -5.92010       -1.77012
H         16.57165       -7.32442       -2.82726
H         16.83965       -5.83332       -4.83816
H         16.99569       -4.42968       -3.77907
H         14.67367       -4.91552       -2.84799
H         14.49400       -6.21852       -4.01773
H         14.97814       -3.26343       -4.72893
H         13.37878       -4.07787       -4.71382
H         14.86410       -2.78914       -7.00340
H         13.34606       -3.66170       -7.41977
H         14.88398       -5.85640       -8.76834
H         14.17802       -0.56503      -13.56639
H         12.78777       -1.61949      -13.94145
H         13.63525       -1.91797      -16.29661
H         15.07109       -0.95253      -15.92064
H         13.59697        1.02147      -15.38009
H         12.17139        0.07615      -15.80687
H         12.97395       -0.13117      -18.16158
H         14.47786        0.69157      -17.74694
H         13.19486        2.75329      -17.11277
H         11.68002        1.95023      -17.51619
H         12.40765        1.73054      -19.90179
H         13.96081        2.46269      -19.51165
H         11.22917        3.88035      -19.23195
H         12.41183        4.16145      -20.52360
H         12.80017        4.61099      -18.85235
H         21.54058       -4.97251       -6.88425
H         21.73400       -4.72227       -8.64148
H         22.86774       -7.14609       -7.05675
H         23.81054       -5.76100       -7.63665
H         23.07555       -6.87321       -8.80703
