74

C          0.78118       -0.98276        0.01059
C          2.22996       -0.75041       -0.42505
C          2.95491       -2.03995       -0.82388
C          4.41558       -1.82834       -1.23567
C          5.11574       -3.13215       -1.62886
C          6.59541       -2.95424       -1.99040
C          7.21874       -4.30220       -2.35221
S          9.00973       -4.06350       -2.67731
C          9.49051       -5.67360       -3.05425
N         10.66129       -6.08343       -3.48574
N         10.57360       -7.46017       -3.62729
C          9.36542       -7.77124       -3.28292
O          8.59429       -6.73027       -2.89637
N          8.80983       -9.05802       -3.33136
C          9.50199      -10.09472       -3.85097
N          8.70904      -11.16735       -3.78353
C          7.48627      -10.84293       -3.21679
C          7.54152       -9.50000       -2.91379
C          6.46733       -8.63907       -2.35308
C          5.75547       -7.81855       -3.46466
O          6.18653       -7.87791       -4.60857
C          4.56996       -7.00848       -3.09253
C          4.08556       -6.92134       -1.77350
C          2.94490       -6.17135       -1.49235
C          2.27693       -5.50431       -2.52309
C          2.75599       -5.57749       -3.83704
C          3.89562       -6.32188       -4.12202
C          6.35690      -11.80790       -3.12508
C          5.48863      -11.77819       -4.39536
O          4.39684      -12.63760       -4.14685
C          3.60004      -12.91183       -5.28148
C          2.84300      -14.22395       -5.05605
C          3.63239      -15.56630       -5.27549
C          4.88013      -15.94426       -4.39411
C          4.63950      -16.12593       -2.86371
F          5.72887      -16.75804       -2.34313
F          4.53407      -14.90873       -2.25910
F          5.31088      -17.14204       -4.87338
F          5.88183      -15.03216       -4.60116
F          2.74076      -16.58586       -5.12134
F          4.06827      -15.55965       -6.56942
F          2.28110      -14.25388       -3.81202
F          1.82625      -14.25769       -5.97359
H          0.28768       -0.04086        0.28438
H          0.72818       -1.64959        0.88447
H          0.18896       -1.44393       -0.79422
H          2.78620       -0.25961        0.39089
H          2.25355       -0.04522       -1.27256
H          2.40879       -2.52004       -1.65523
H          2.91497       -2.75602        0.01689
H          4.96435       -1.35247       -0.40490
H          4.46231       -1.11666       -2.07754
H          4.58739       -3.59030       -2.48096
H          5.03282       -3.85366       -0.79772
H          7.13679       -2.50752       -1.14075
H          6.69782       -2.25516       -2.83562
H          6.75547       -4.72750       -3.25267
H          7.10982       -5.01385       -1.52233
H         10.51355      -10.03483       -4.23569
H          8.97919      -12.09579       -4.09939
H          6.85453       -7.95587       -1.58390
H          5.73506       -9.28652       -1.84991
H          4.58959       -7.43801       -0.95581
H          2.57265       -6.10678       -0.46999
H          1.38186       -4.92267       -2.30115
H          2.23356       -5.05370       -4.63804
H          4.28083       -6.39710       -5.13906
H          5.72358      -11.56140       -2.26119
H          6.72334      -12.83091       -2.95682
H          6.07322      -12.12635       -5.26948
H          5.15357      -10.74495       -4.60924
H          4.20445      -13.01008       -6.19967
H          2.83746      -12.12936       -5.44457
H          3.73699      -16.72137       -2.65771
