65

C          0.68918        0.13456        2.41155
C          2.18111        0.12637        2.06913
C          2.78472       -1.28135        2.00406
C          4.27610       -1.29151        1.65428
C          4.89100       -2.69358        1.59720
C          6.38424       -2.68867        1.25458
C          7.01714       -4.08342        1.22092
C          8.51676       -4.06187        0.90727
C          9.16956       -5.44752        0.91782
C         10.67628       -5.41123        0.63549
C         11.34492       -6.78641        0.74449
C         12.83430       -6.81637        0.37492
C         13.68923       -5.91029        1.30239
C         15.14159       -6.06052        1.06019
N         15.89761       -7.06075        1.57610
N         17.13830       -6.90138        1.17330
N         17.18825       -5.83048        0.40702
N         15.93873       -5.27546        0.30337
C         15.65508       -4.07919       -0.49736
C         15.91128       -4.17998       -2.02964
C         15.11894       -5.30196       -2.72292
F         15.40498       -6.51459       -2.16505
F         13.77763       -5.09630       -2.59272
F         15.40604       -5.36767       -4.02723
O         15.63990       -2.92513       -2.59634
N         18.28811       -5.28727       -0.22630
C         18.99227       -6.30137       -1.04431
C         19.15354       -4.55650        0.72894
H          0.28987        1.15738        2.44988
H          0.50121       -0.33167        3.39033
H          0.10437       -0.42230        1.66428
H          2.73422        0.72259        2.81485
H          2.34002        0.63278        1.10179
H          2.22995       -1.88207        1.26167
H          2.63284       -1.78772        2.97387
H          4.82706       -0.68367        2.39391
H          4.42503       -0.78880        0.68214
H          4.34644       -3.30362        0.85529
H          4.74199       -3.19722        2.56860
H          6.92241       -2.06429        1.98989
H          6.53225       -2.19653        0.27695
H          6.49480       -4.70745        0.47504
H          6.85701       -4.57943        2.19429
H          9.02934       -3.41490        1.64167
H          8.67732       -3.58739       -0.07716
H          8.67470       -6.09804        0.17672
H          8.99818       -5.92256        1.89939
H         11.14132       -4.70310        1.34486
H         10.85082       -4.99556       -0.37363
H         10.82832       -7.49625        0.07911
H         11.21445       -7.18206        1.76599
H         12.96995       -6.49646       -0.66822
H         13.21640       -7.84532        0.44719
H         13.51895       -6.19954        2.35073
H         13.39128       -4.85720        1.20301
H         16.27230       -3.25217       -0.12530
H         14.60174       -3.83901       -0.30488
H         16.97578       -4.38271       -2.20744
H         14.67924       -2.80023       -2.69817
H         18.27305       -6.78564       -1.71499
H         19.49910       -7.06142       -0.43049
H         19.73313       -5.76363       -1.64705
H         18.55532       -3.81508        1.27203
H         19.90958       -4.02705        0.13832
H         19.64765       -5.23299        1.44424
