51

O          2.00626       -0.91018       -0.54068
C          3.32026       -0.43005       -0.30816
C          3.25235        0.34449        1.00954
C          4.58470        0.84362        1.56467
C          4.39459        1.62029        2.87826
C          5.66812        2.12772        3.55817
C          5.40335        2.81429        4.90189
C          6.66424        2.80734        5.77085
O          7.60588        2.07582        5.56700
O          6.67171        3.65135        6.82992
O          5.27590        1.57167        0.56669
C          6.65983        1.21273        0.51506
C          6.69307       -0.28452        0.84275
N          5.54494       -0.37336        1.83799
C          7.98770       -0.82786        1.42727
C          9.16050       -0.72477        0.43869
O         10.28969       -1.26562        1.06802
Si        11.87770       -1.08350        0.48990
C         12.03070       -1.95783       -1.16515
C         12.24456        0.75119        0.30041
C         12.92794       -1.88091        1.81094
H          1.94212       -1.24761       -1.44765
H          3.67444        0.22934       -1.11715
H          4.03548       -1.28084       -0.24100
H          2.74739       -0.27604        1.76767
H          2.61138        1.22602        0.86439
H          3.82035        0.98188        3.57199
H          3.73401        2.46435        2.62984
H          6.19995        2.82721        2.89790
H          6.38425        1.31467        3.77786
H          4.62176        2.27925        5.46892
H          5.03441        3.84176        4.75992
H          5.85828        4.18616        6.85756
H          7.26274        1.79176        1.23516
H          7.01661        1.42387       -0.49938
H          6.36946       -0.86175       -0.03528
H          5.91699       -0.30003        2.79598
H          5.03742       -1.26146        1.75652
H          7.87216       -1.88653        1.70660
H          8.25502       -0.27096        2.34167
H          9.31848        0.33549        0.15633
H          8.90998       -1.27502       -0.49138
H         11.36391       -1.52411       -1.92431
H         11.79744       -3.02762       -1.07267
H         13.05797       -1.87195       -1.54821
H         11.64883        1.21925       -0.49643
H         13.30175        0.89644        0.03591
H         12.05931        1.29499        1.23734
H         12.66639       -2.93994        1.93881
H         12.80042       -1.37581        2.77793
H         13.99178       -1.82637        1.53965
