34

C          8.99153        0.39024        0.02882
C          8.13070        0.77948       -0.73315
C          7.07422        1.31743       -1.58318
C          5.65323        1.24433       -0.97015
C          5.53519        1.63783        0.52261
C          6.15845        2.93860        0.89378
N          5.53851        4.06055        1.17830
N          6.53726        4.95321        1.47914
C          7.76810        4.38762        1.38369
N          7.52556        3.12190        1.01395
C          9.09786        5.01054        1.61592
C         10.29780        4.07750        1.44881
C         11.62906        4.79884        1.55218
Br        11.83511        6.03286        0.03435
Br        10.29342        2.68811        2.87859
C          6.22884        6.35197        1.86973
O          7.16291        7.07323        2.09776
C          4.77467        6.67281        1.92737
H          9.75973       -0.02137        0.65244
H          7.07508        0.77882       -2.54347
H          7.32598        2.36163       -1.83614
H          5.27174        0.21796       -1.05535
H          4.99227        1.88202       -1.57339
H          6.00003        0.85624        1.14366
H          4.47560        1.68937        0.80226
H          8.21791        2.36985        0.84260
H          9.10108        5.48247        2.61058
H          9.21429        5.84917        0.90412
H         10.25462        3.50805        0.51055
H         12.46513        4.09802        1.48654
H         11.71199        5.40139        2.46318
H          4.25910        6.01031        2.63686
H          4.30339        6.50880        0.94779
H          4.66792        7.71765        2.23155
