72

Br         4.29894       -0.32931        1.57330
C          4.70080       -0.20038       -0.27305
C          4.22761        0.78041       -1.04836
C          3.36550        1.93497       -0.63362
C          1.87922        1.74939       -0.89091
C          1.35061        0.52769       -1.27371
C         -0.02519        0.33625       -1.50241
C         -0.95651        1.34833       -1.34469
C         -0.44802        2.62672       -0.94257
C          0.96970        2.82822       -0.72146
C          1.39187        4.12534       -0.32407
C          0.49829        5.14470       -0.15225
N         -0.84311        4.93043       -0.36210
C         -1.29665        3.72751       -0.74507
C         -1.79004        6.05539       -0.16829
C         -1.77644        6.99922       -1.37856
C         -2.62802        8.26838       -1.20112
C         -4.09795        8.25402       -1.77574
C         -5.16191        7.20703       -1.26077
C         -5.64762        7.16160        0.24107
C         -6.32623        8.40909        0.93559
C         -7.63277        9.00863        0.29261
F         -8.53215        8.03899        0.05243
F         -8.15757        9.89159        1.15416
F         -7.35037        9.64186       -0.85875
F         -6.65059        7.98156        2.18249
F         -5.40851        9.40062        1.04166
F         -6.51443        6.12192        0.30711
F         -4.56232        6.84699        1.01489
F         -6.25409        7.34445       -2.04164
F         -4.62898        5.95690       -1.50147
F         -4.61412        9.49319       -1.62848
F         -3.97459        7.99012       -3.11155
F         -2.67010        8.64866        0.11391
F         -2.01423        9.27856       -1.89046
C         -2.42768        1.09008       -1.61024
C         -2.89783       -0.26719       -1.07780
O         -2.74687       -0.22703        0.36402
C         -2.00737       -1.21032        0.95340
O         -1.48652       -2.13117        0.35860
C         -1.89915       -0.96323        2.43859
S         -0.59117        0.27711        2.78057
C         -4.35006       -0.59965       -1.41050
O         -4.51321       -2.02562       -1.34188
C         -5.05552       -2.54672       -0.20065
O         -5.48731       -1.87997        0.71549
C         -5.00396       -4.05913       -0.22519
S         -5.85358       -4.83344       -1.64557
Br         4.68560        0.72920       -2.90438
H          5.34367       -1.00136       -0.62946
H          3.72356        2.83492       -1.15706
H          3.52372        2.10394        0.44570
H          2.01956       -0.32372       -1.40268
H         -0.35027       -0.66090       -1.79641
H          2.44342        4.33423       -0.13806
H          0.78146        6.14695        0.16152
H         -2.37348        3.66289       -0.88487
H         -1.49089        6.58306        0.74517
H         -2.77661        5.61876        0.00663
H         -2.09293        6.47720       -2.29123
H         -0.75457        7.36587       -1.55254
H         -2.60921        1.12627       -2.69744
H         -3.06452        1.86513       -1.16206
H         -2.27876       -1.08940       -1.46276
H         -1.67828       -1.90099        2.95740
H         -2.82765       -0.52972        2.82902
H          0.45276       -0.51270        2.43250
H         -4.58369       -0.32005       -2.44703
H         -5.04273       -0.10158       -0.71688
H         -5.40072       -4.43616        0.72257
H         -3.95373       -4.37060       -0.32110
H         -7.11102       -4.53090       -1.24550
