86

C          0.83153        0.09732       -1.07740
C          2.33660        0.26054       -0.85055
C          2.82179       -0.33887        0.47405
C          4.32357       -0.15767        0.71505
C          4.81659       -0.74928        2.03966
C          6.31792       -0.55011        2.27126
C          6.82716       -1.12379        3.59755
C          8.32576       -0.89248        3.81717
C          8.85973       -1.45400        5.13913
C         10.34737       -1.15964        5.35521
C         10.91141       -1.71614        6.66693
C         12.37859       -1.33657        6.88595
C         12.96143       -1.82755        8.21717
C         14.42630       -1.39270        8.37897
C         15.13946       -1.58999        9.71846
O         15.14937       -2.98587       10.14060
C         14.14714       -3.15215       11.07687
N         14.31093       -1.93670       11.98687
C         14.66934       -0.81061       11.00788
C         13.50568        0.18882       10.98389
C         13.79518        1.44586       10.15369
C         12.91731        2.66550       10.46238
C         11.54108        2.81488        9.70663
C         10.36189        1.79148        9.93342
C          9.78383        1.59567       11.38305
F          9.52970        2.76715       11.97339
F          8.65120        0.88155       11.30204
F         10.66052        0.89790       12.15178
F          9.34324        2.20792        9.15018
F         10.76554        0.55810        9.48872
F         11.05569        4.04749        9.98163
F         11.82218        2.74259        8.37035
F         12.68120        2.77890       11.81045
F         13.62345        3.77580       10.08429
C         15.33900       -2.14256       13.10524
C         14.82799       -3.10876       14.13228
C         13.87561       -2.68690       15.07531
C         13.35979       -3.58930       16.00547
C         13.79979       -4.91696       16.00623
C         14.75922       -5.33994       15.08269
C         15.27182       -4.43971       14.14620
H          0.51846        0.52880       -2.03842
H          0.25188        0.59471       -0.28513
H          0.54066       -0.96425       -1.07996
H          2.59992        1.33172       -0.88070
H          2.88822       -0.20808       -1.68357
H          2.57343       -1.41491        0.49923
H          2.25999        0.11801        1.30814
H          4.56830        0.91899        0.68598
H          4.88488       -0.61477       -0.11895
H          4.58023       -1.82771        2.07006
H          4.25464       -0.29435        2.87464
H          6.55040        0.52889        2.23094
H          6.87884       -1.00837        1.43762
H          6.61150       -2.20622        3.63734
H          6.26171       -0.67254        4.43222
H          8.53414        0.19149        3.77406
H          8.88979       -1.33890        2.97928
H          8.68990       -2.54456        5.17125
H          8.27850       -1.03192        5.97814
H         10.50538       -0.06680        5.33064
H         10.92767       -1.56620        4.50851
H         10.80649       -2.81494        6.67856
H         10.30657       -1.34239        7.51139
H         12.47501       -0.23706        6.84155
H         12.99028       -1.72695        6.05469
H         12.89564       -2.92686        8.26424
H         12.32868       -1.44271        9.03178
H         14.53998       -0.33337        8.09771
H         15.03500       -1.93934        7.64163
H         16.19989       -1.34839        9.55993
H         14.29639       -4.07805       11.64366
H         13.12283       -3.09929       10.66912
H         13.41012       -1.72398       12.43754
H         15.54854       -0.31306       11.43913
H         13.33747        0.50645       12.02494
H         12.58631       -0.30189       10.64426
H         13.72703        1.25517        9.07638
H         14.81958        1.79647       10.35337
H         15.51338       -1.14399       13.52862
H         16.25741       -2.48734       12.61353
H         13.55065       -1.64277       15.10135
H         12.62581       -3.25506       16.73882
H         13.40063       -5.62127       16.73647
H         15.11389       -6.37057       15.09519
H         16.03418       -4.76861       13.43637
