31

N          3.33046        3.08467       -1.67037
C          2.48382        2.51051       -0.61762
C          2.81691        1.00932       -0.51707
N          4.31774        0.89964       -0.52378
C          4.96819       -0.44977       -0.97440
O          5.11980       -1.12465        0.24203
C          5.72856       -0.17137        1.11424
C          4.92978        1.12297        0.85266
I          6.14015        2.90056        0.98123
C          4.21535       -1.28208       -1.98819
C          4.16490       -0.65467       -3.39867
O          5.46053       -0.16419       -3.76587
C          3.59765       -1.62469       -4.42608
H          3.58581        4.05119       -1.47576
H          2.88401        3.06170       -2.58716
H          1.40232        2.61987       -0.79095
H          2.71151        3.01561        0.33127
H          2.44668        0.48181       -1.40360
H          2.40559        0.52868        0.37743
H          4.56468        1.69652       -1.18109
H          5.93999       -0.12895       -1.39188
H          6.79476       -0.04076        0.86807
H          5.62357       -0.51833        2.14815
H          4.11361        1.26745        1.56446
H          3.20851       -1.53820       -1.62624
H          4.77413       -2.23043       -2.04112
H          3.52445        0.24616       -3.37385
H          5.90781       -0.83537       -4.30687
H          4.23198       -2.52182       -4.50257
H          3.54489       -1.14681       -5.41242
H          2.58667       -1.95602       -4.15157
