86

C          1.28005       -1.07668       -0.79775
C          2.77048       -0.73352       -0.73398
C          3.48609       -0.89933       -2.07893
C          4.97127       -0.52515       -2.04178
C          5.67847       -0.72219       -3.38602
C          7.14942       -0.29316       -3.38699
C          7.83998       -0.53815       -4.73150
C          9.29826       -0.06846       -4.78730
C          9.94118       -0.37060       -6.14501
C         11.37451        0.11733       -6.27059
O         11.87610       -0.34826       -7.54155
C         13.12942        0.16544       -7.90056
N         13.42019       -0.35731       -9.23306
C         12.56753       -0.08395      -10.26388
N         12.05355        1.15535      -10.36578
C         10.94371        1.54651      -11.24855
O         10.66677        0.52943      -12.17651
C         11.82340       -0.24156      -12.46644
N         12.28015       -0.95273      -11.25540
C         11.99140       -2.45277      -11.13344
C         10.50091       -2.74216      -11.48833
C          9.40740       -2.63809      -10.40150
C          9.17370       -1.22850       -9.84198
C          8.09899       -3.19973      -10.98015
C         12.92504       -3.18323      -12.14109
O         12.68801       -2.87810      -13.51256
C         12.31300       -3.02614       -9.74825
C         14.76129       -0.90704       -9.49553
C         15.82003        0.19454       -9.64959
C         17.21093       -0.39694       -9.90952
C         18.24315        0.70418      -10.16922
S         19.88266       -0.04028      -10.38301
O         20.34538       -0.53361       -9.10703
O         19.86797       -0.87937      -11.55883
Cl        20.99425        1.65809      -10.83938
H          0.79584       -0.95503        0.18080
H          1.12231       -2.11724       -1.11868
H          0.75137       -0.42786       -1.51209
H          3.26459       -1.36887        0.02050
H          2.89531        0.30454       -0.38191
H          2.97576       -0.28257       -2.84011
H          3.38026       -1.94457       -2.42002
H          5.48239       -1.12491       -1.26838
H          5.07423        0.52731       -1.72420
H          5.13804       -0.15800       -4.16678
H          5.60823       -1.78425       -3.68078
H          7.69230       -0.83345       -2.59200
H          7.21824        0.77751       -3.12712
H          7.26893       -0.03228       -5.53016
H          7.79862       -1.61585       -4.96894
H          9.87607       -0.55707       -3.98444
H          9.34328        1.01496       -4.58228
H          9.34245        0.08809       -6.94819
H          9.92881       -1.45762       -6.32814
H         12.01045       -0.28009       -5.45820
H         11.42833        1.22237       -6.23414
H         13.94211       -0.18605       -7.23752
H         13.12676        1.27738       -7.85026
H         12.48880        1.89160       -9.81869
H         11.24091        2.49112      -11.74098
H         10.02355        1.70890      -10.66609
H         12.65119        0.39724      -12.81785
H         11.56783       -0.96165      -13.24239
H         10.49373       -3.78710      -11.84198
H         10.18943       -2.14818      -12.35950
H          9.69745       -3.28972       -9.56061
H          8.86442       -0.53899      -10.64016
H         10.05795       -0.81626       -9.33945
H          8.36929       -1.25475       -9.09385
H          7.74904       -2.59363      -11.83009
H          7.30360       -3.19637      -10.22303
H          8.21960       -4.23364      -11.33293
H         12.84044       -4.26489      -11.95336
H         13.96650       -2.89240      -11.93054
H         12.14102       -3.57336      -13.90727
H         11.84100       -2.47374       -8.93045
H         13.38987       -3.08808       -9.55602
H         11.92860       -4.05398       -9.72468
H         14.71813       -1.49994      -10.41639
H         15.01823       -1.59392       -8.67548
H         15.84611        0.82333       -8.74457
H         15.52708        0.85164      -10.48594
H         17.17709       -1.07132      -10.77909
H         17.52587       -1.00164       -9.04512
H         18.34298        1.40445       -9.32906
H         18.04250        1.26149      -11.09418
