28

F          2.45876       -1.02276       -0.54997
C          2.17986        0.34867       -0.48350
C          2.68492        0.93709        0.83128
N          4.18099        0.93787        0.94451
C          4.80053       -0.15493        1.49598
C          3.99783       -1.29401        2.09940
C          3.38091       -0.89505        3.36131
C          2.88147       -0.54621        4.40547
C          6.19499       -0.19937        1.55560
C          6.96051        0.86523        1.10302
C          6.30576        1.99441        0.61468
C          4.91897        2.02348        0.52362
C          4.25248        3.24715       -0.11467
O          3.28151        3.10724       -0.83437
C          4.87710        4.59090        0.15652
H          1.08783        0.48001       -0.51903
H          2.63770        0.83169       -1.35412
H          2.29627        0.38467        1.69327
H          2.33430        1.96887        0.91089
H          4.69348       -2.12801        2.27306
H          3.24488       -1.66383        1.38826
H          2.43092       -0.26611        5.33638
H          6.66282       -1.08537        1.98211
H          8.04910        0.82985        1.14843
H          6.87163        2.86215        0.28244
H          5.76543        4.73420       -0.47983
H          5.19280        4.70555        1.20200
H          4.15070        5.36468       -0.11322
