37

C          3.71389       -0.03553        2.22550
C          2.90575        0.41859        1.00589
C          3.42857        1.71353        0.35339
C          2.74123        2.02102       -0.99618
N          1.31546        2.38334       -0.89061
N          0.91263        3.59364       -0.60088
N         -0.38676        3.59125       -0.39669
C         -0.81322        2.31532       -0.55796
N          0.24326        1.51674       -0.85494
C          0.23532        0.12858       -1.34741
C         -0.28191       -0.00789       -2.79312
C          0.57657        0.77846       -3.79058
C         -0.34547       -1.50266       -3.13791
N         -2.09374        1.93541       -0.46889
C          3.41125        2.92332        1.29640
H          3.35433       -1.00759        2.58600
H          3.63305        0.67233        3.06021
H          4.77911       -0.14647        1.97798
H          1.85112        0.55414        1.30662
H          2.92123       -0.39018        0.25496
H          4.47630        1.53203        0.05065
H          2.81435        1.18076       -1.69769
H          3.19405        2.89964       -1.47280
H         -0.37965       -0.44629       -0.63809
H          1.25571       -0.26169       -1.24964
H         -1.30842        0.39655       -2.82748
H          1.60967        0.39915       -3.81759
H          0.60702        1.85509       -3.56948
H          0.16763        0.67546       -4.80363
H          0.65502       -1.96025       -3.12096
H         -0.75356       -1.64009       -4.14707
H         -0.98676       -2.06099       -2.44152
H         -2.76733        2.63289       -0.17088
H         -2.37610        0.96428       -0.45743
H          2.40937        3.10777        1.71167
H          3.73617        3.84033        0.78734
H          4.08897        2.75954        2.14228
