125

C         22.10726       -8.14166      -16.50096
C         21.58629       -8.75856      -15.20142
C         21.96155       -7.94831      -13.95688
C         21.45091       -8.55593      -12.64781
C         21.82178       -7.73980      -11.40593
C         21.31577       -8.35171      -10.09694
C         21.67823       -7.53694       -8.85160
C         21.17415       -8.16325       -7.54870
C         21.52004       -7.35790       -6.29241
C         21.01600       -8.01173       -5.00305
C         21.33679       -7.22617       -3.72762
C         20.82999       -7.92084       -2.46064
C         21.11832       -7.16538       -1.15970
C         20.61475       -7.91369        0.07850
C         20.86329       -7.18253        1.40311
C         20.33706       -7.93625        2.63511
C         21.14084       -9.19541        2.98723
C         20.47257      -10.05791        4.06335
C         21.28015      -11.31872        4.38945
C         20.50138      -12.29841        5.30804
C         21.25472      -13.57334        5.53746
C         22.31899      -13.61427        6.44646
C         23.07268      -14.76505        6.63103
C         22.76660      -15.90850        5.88145
C         21.70223      -15.85154        4.99703
N         20.96153      -14.71908        4.84011
C         19.80372      -14.81707        3.89457
C         20.01542      -14.16137        2.52331
C         21.33861      -14.54759        1.83013
S         21.18099      -14.96724        0.07908
C         20.86185      -16.74183        0.15809
S         20.84421      -17.60488        1.59962
N         20.66242      -17.29705       -1.05419
C         20.71729      -16.51647       -2.30991
C         22.12642      -16.28388       -2.87635
C         22.89108      -17.54409       -3.29396
C         24.25096      -17.21130       -3.91319
C         20.39059      -18.74781       -1.17440
C         18.93285      -19.14378       -0.90802
C         17.89766      -18.55464       -1.87174
C         16.48054      -19.05112       -1.57469
C         23.58601      -17.15966        6.07386
O         24.48228      -17.21814        6.89052
O         23.18938      -18.13071        5.23858
C         23.89672      -19.41720        5.31939
C         23.13561      -20.40003        6.19500
C         23.81851      -21.77465        6.21718
C         23.05425      -22.79717        7.06102
H         21.82221       -8.74116      -17.37667
H         23.20481       -8.06502      -16.49257
H         21.70722       -7.12723      -16.64753
H         21.97658       -9.78518      -15.09688
H         20.48858       -8.85611      -15.25244
H         21.56818       -6.92160      -14.06063
H         23.06020       -7.84660      -13.90791
H         21.84861       -9.58096      -12.54244
H         20.35280       -8.66197      -12.69906
H         21.41996       -6.71656      -11.50960
H         22.91944       -7.62958      -11.35674
H         21.72114       -9.37396       -9.99319
H         20.21856       -8.46627      -10.14910
H         21.26678       -6.51714       -8.95023
H         22.77466       -7.41702       -8.79942
H         21.59039       -9.18198       -7.45202
H         20.07856       -8.28997       -7.60708
H         21.09451       -6.34298       -6.37970
H         22.61435       -7.22376       -6.23237
H         21.44727       -9.02558       -4.92055
H         19.92307       -8.15464       -5.07321
H         20.89409       -6.21737       -3.79639
H         22.42787       -7.07490       -3.65277
H         21.27974       -8.92837       -2.39956
H         19.74104       -8.08271       -2.54903
H         20.65111       -6.16642       -1.20153
H         22.20428       -6.98997       -1.06711
H         21.08934       -8.91023        0.09995
H         19.53047       -8.09712       -0.02780
H         20.37858       -6.19397        1.35933
H         21.94272       -6.98479        1.52367
H         19.28325       -8.21543        2.45844
H         20.33143       -7.26186        3.50675
H         22.15164       -8.90158        3.31798
H         21.28170       -9.81171        2.08371
H         19.46671      -10.34865        3.71272
H         20.31642       -9.46886        4.98264
H         22.23231      -11.04767        4.87218
H         21.54945      -11.83324        3.45317
H         19.50780      -12.48538        4.88243
H         20.34189      -11.81936        6.28565
H         22.53756      -12.71014        7.01416
H         23.89752      -14.80821        7.34410
H         21.41315      -16.70264        4.38034
H         18.92440      -14.40111        4.40186
H         19.64035      -15.89078        3.74860
H         19.92183      -13.06930        2.58909
H         19.16608      -14.50368        1.91489
H         21.79712      -15.43783        2.28958
H         22.06550      -13.72375        1.85146
H         20.21801      -15.55023       -2.13607
H         20.10247      -17.05949       -3.03958
H         22.72587      -15.71312       -2.15026
H         22.00330      -15.62483       -3.75241
H         22.28817      -18.12056       -4.01622
H         23.03934      -18.19761       -2.41920
H         24.13673      -16.59086       -4.81388
H         24.79323      -18.12129       -4.20151
H         24.88349      -16.65558       -3.20556
H         21.04985      -19.26709       -0.46593
H         20.68479      -19.03431       -2.19283
H         18.67590      -18.87882        0.12914
H         18.89496      -20.24504       -0.96061
H         18.16678      -18.81506       -2.90999
H         17.91582      -17.45381       -1.81293
H         16.41672      -20.14545       -1.66168
H         15.74933      -18.61849       -2.27057
H         16.17106      -18.78150       -0.55408
H         24.90966      -19.22909        5.69778
H         23.94422      -19.75616        4.27651
H         22.10587      -20.50113        5.81595
H         23.06949      -20.00114        7.21974
H         24.84367      -21.66516        6.60610
H         23.91858      -22.14919        5.18510
H         22.95392      -22.45965        8.10238
H         23.57129      -23.76527        7.07301
H         22.04240      -22.96408        6.66450
