99

C          0.83327        0.44157        0.61472
C          2.34728        0.27369        0.46700
C          2.76593       -1.11416       -0.03193
C          4.28143       -1.27214       -0.18724
C          4.72222       -2.65402       -0.68155
C          6.24115       -2.78037       -0.83344
C          6.71542       -4.14786       -1.33663
C          8.23804       -4.23278       -1.48035
C          8.75166       -5.57164       -2.02005
C         10.27698       -5.60738       -2.15913
C         10.82910       -6.91536       -2.73474
C         12.35668       -6.91181       -2.85119
C         12.94285       -8.19618       -3.44642
C         14.47160       -8.15829       -3.53119
C         15.07867       -9.44969       -4.10012
C         16.61849       -9.41882       -4.15062
N         17.17248      -10.77521       -3.69657
C         16.96614      -11.94599       -4.65874
C         17.52830      -13.19896       -3.98552
C         17.29816      -14.50012       -4.78209
C         17.73722      -15.71143       -3.98787
C         16.80743      -16.45030       -3.24310
C         17.21568      -17.54588       -2.47839
C         18.56325      -17.91192       -2.44558
C         19.49881      -17.18195       -3.18420
C         19.08730      -16.09044       -3.95160
C         17.59579      -11.56187       -5.99493
C         17.09591      -10.20969       -6.51938
C         17.29523       -9.07811       -5.49611
C         16.85877       -7.69305       -6.00716
C         17.69012       -7.16286       -7.18216
C         17.29721       -5.73373       -7.56681
C         18.09412       -5.20049       -8.76802
N         17.71821       -3.84814       -9.13719
C         16.65229       -3.50985       -9.94589
C         16.53273       -2.13259       -9.94781
C         17.55591       -1.61721       -9.10354
C         18.26762       -2.69582       -8.61300
H          0.57215        1.44716        0.97225
H          0.41863       -0.28301        1.33163
H          0.31782        0.28619       -0.34485
H          2.83628        0.47126        1.43613
H          2.73631        1.03861       -0.22655
H          2.27468       -1.31731       -1.00011
H          2.38592       -1.88237        0.66485
H          4.76967       -1.06110        0.78072
H          4.65602       -0.50226       -0.88507
H          4.23737       -2.86905       -1.65016
H          4.35696       -3.42750        0.01686
H          6.72161       -2.56503        0.13743
H          6.60130       -1.99802       -1.52488
H          6.24190       -4.36477       -2.31036
H          6.36496       -4.93651       -0.64777
H          8.70603       -4.03367       -0.50000
H          8.58275       -3.42166       -2.14596
H          8.28855       -5.77307       -3.00197
H          8.42225       -6.39005       -1.35611
H         10.73511       -5.42418       -1.17113
H         10.60037       -4.76763       -2.79920
H         10.38495       -7.09565       -3.72931
H         10.51015       -7.76192       -2.10173
H         12.79572       -6.74239       -1.85227
H         12.67150       -6.05164       -3.46765
H         12.52240       -8.36194       -4.45351
H         12.62812       -9.06277       -2.83846
H         14.88962       -7.98151       -2.52467
H         14.77919       -7.29628       -4.14276
H         14.66329       -9.65825       -5.09748
H         14.74676      -10.28844       -3.46167
H         16.98057       -8.71784       -3.38108
H         16.75556      -11.02055       -2.78826
H         18.18635      -10.68227       -3.53578
H         15.87356      -12.03504       -4.76566
H         17.05840      -13.31945       -2.99363
H         18.61083      -13.07232       -3.80782
H         17.85035      -14.45859       -5.73288
H         16.22976      -14.58963       -5.03460
H         15.74991      -16.17665       -3.27257
H         16.47910      -18.11893       -1.91418
H         18.88350      -18.76930       -1.85294
H         20.55065      -17.46956       -3.16990
H         19.82391      -15.53515       -4.53803
H         17.37524      -12.35754       -6.71889
H         18.69506      -11.54552       -5.88287
H         16.03221      -10.28341       -6.79958
H         17.63610       -9.96555       -7.44290
H         18.38198       -9.01129       -5.28563
H         16.92811       -6.97118       -5.17630
H         15.79608       -7.72251       -6.30034
H         17.57114       -7.81869       -8.06031
H         18.76154       -7.19492       -6.91657
H         17.44936       -5.05579       -6.71156
H         16.22320       -5.69075       -7.80969
H         17.94570       -5.85206       -9.64331
H         19.17207       -5.20720       -8.54478
H         16.08218       -4.27611      -10.46188
H         15.80274       -1.56008      -10.51074
H         17.76234       -0.57278       -8.89358
H         19.12601       -2.74234       -7.95015
