58

C         -0.18518       -2.64712        4.71087
C          1.28182       -2.57654        5.14215
C          2.26230       -2.82404        3.99032
C          3.73398       -2.76827        4.41385
C          4.70599       -3.01121        3.25496
C          6.17982       -2.99184        3.67557
C          7.12860       -3.23491        2.49597
C          8.62022       -3.21981        2.83823
S          9.06309       -4.42573        4.14958
C          8.55675       -6.01574        3.40253
C          9.18818       -7.20512        4.15798
O          9.25949       -6.91261        5.55655
C          8.44115       -8.49618        3.84952
C         10.89253       -4.47451        4.03869
C         11.53733       -3.14311        4.44311
C         11.13267       -2.59077        5.81670
C         11.49354       -3.50530        7.00302
N         11.15638       -2.90671        8.27854
C          9.93787       -3.03124        8.91765
C          9.94477       -2.20071       10.02167
C         11.20575       -1.54147       10.04899
C         11.93066       -1.98890        8.96155
H         -0.86083       -2.46428        5.55702
H         -0.43334       -3.63517        4.29563
H         -0.41171       -1.89773        3.93815
H          1.46756       -3.31404        5.94141
H          1.48897       -1.58933        5.58835
H          2.08334       -2.08077        3.19378
H          2.05018       -3.80834        3.53638
H          3.91405       -3.51613        5.20651
H          3.94785       -1.78643        4.87046
H          4.54276       -2.24946        2.47341
H          4.47638       -3.98223        2.78158
H          6.33766       -3.75625        4.45894
H          6.42244       -2.02601        4.15039
H          6.98958       -2.44327        1.74174
H          6.86929       -4.17353        1.98099
H          8.91850       -2.25402        3.27241
H          9.25566       -3.42988        1.96594
H          8.81711       -6.01360        2.33452
H          7.46186       -6.01752        3.50832
H         10.23516       -7.30894        3.83211
H          8.46774       -7.25677        6.00200
H          7.39837       -8.44213        4.19940
H          8.93624       -9.34077        4.34425
H          8.42292       -8.69958        2.77022
H         11.15742       -4.77020        3.01370
H         11.16403       -5.28435        4.72915
H         11.35231       -2.38721        3.66585
H         12.62428       -3.32629        4.41991
H         10.05112       -2.37521        5.85392
H         11.63237       -1.62183        5.95763
H         12.57291       -3.72619        6.99153
H         10.96816       -4.47092        6.93975
H          9.18307       -3.71562        8.54250
H          9.13997       -2.09490       10.74181
H         11.55313       -0.83290       10.79366
H         12.93399       -1.74671        8.62531
