115

C          1.16334        1.26576       -0.40262
C          2.66231        0.98796       -0.53925
C          2.98015       -0.42832       -1.03199
C          4.48007       -0.70745       -1.16697
C          4.80975       -2.12045       -1.65898
C          6.31298       -2.38116       -1.79367
C          6.66313       -3.78973       -2.28373
C          8.17094       -4.02933       -2.40413
C          8.54863       -5.43977       -2.86706
C         10.06206       -5.65823       -2.95125
C         10.47408       -7.08132       -3.34015
C         11.99337       -7.27169       -3.37419
C         12.44833       -8.71652       -3.60378
C         13.97038       -8.86934       -3.53695
C         14.47570      -10.31222       -3.62700
C         15.98790      -10.41150       -3.40787
C         16.54045      -11.83872       -3.44687
C         18.05027      -11.87958       -3.19189
C         18.64398      -13.28195       -3.33024
C         20.17645      -13.30215       -3.07274
C         20.76861      -14.56712       -3.60393
C         21.09730      -14.66240       -4.96448
C         21.53939      -15.85371       -5.53513
C         21.79865      -16.04150       -6.99801
C         20.70820      -16.90011       -7.69853
C         19.24803      -16.51100       -7.39647
C         18.91211      -15.05136       -7.76033
C         17.61543      -14.53524       -7.10485
C         17.53825      -13.03654       -7.05234
C         16.54749      -12.22903       -7.47446
C         15.28161      -12.70239       -8.13681
C         16.64210      -10.73806       -7.28230
C         18.29821      -17.50645       -8.07723
N         21.67745      -16.91300       -4.70329
C         21.39950      -16.88079       -3.37560
C         20.93178      -15.71577       -2.80049
C         21.66430      -18.20583       -2.70787
O         22.08602      -19.14277       -3.36611
O         21.38073      -18.17961       -1.41320
C         21.63486      -19.41783       -0.64601
C         23.04798      -19.42923       -0.08510
C         23.29098      -20.66577        0.79437
C         24.70715      -20.70149        1.37435
H          0.97246        2.28982       -0.05277
H          0.69321        0.57689        0.31516
H          0.64458        1.14169       -1.36500
H          3.15769        1.15207        0.43291
H          3.11131        1.72026       -1.23177
H          2.48790       -0.59382       -2.00693
H          2.53127       -1.16383       -0.34081
H          4.97055       -0.53895       -0.19172
H          4.92625        0.03015       -1.85750
H          4.31967       -2.29232       -2.63366
H          4.37040       -2.86070       -0.96700
H          6.80053       -2.20586       -0.81815
H          6.74985       -1.63775       -2.48388
H          6.18303       -3.96833       -3.26205
H          6.22864       -4.53541       -1.59453
H          8.64716       -3.83198       -1.42727
H          8.60236       -3.28939       -3.10145
H          8.09059       -5.64130       -3.85135
H          8.11155       -6.18013       -2.17374
H         10.51562       -5.41056       -1.97503
H         10.49479       -4.94162       -3.67154
H         10.04264       -7.34053       -4.32263
H         10.03527       -7.79425       -2.61977
H         12.41712       -6.91714       -2.41745
H         12.42842       -6.62000       -4.15254
H         12.07583       -9.07879       -4.57815
H         11.98479       -9.36710       -2.84108
H         14.32673       -8.43074       -2.58822
H         14.43718       -8.26726       -4.33609
H         14.20890      -10.74609       -4.60702
H         13.95624      -10.92890       -2.87301
H         16.23663       -9.95300       -2.43488
H         16.50892       -9.80260       -4.16705
H         16.32439      -12.29420       -4.42782
H         16.02173      -12.45785       -2.69480
H         18.27117      -11.47492       -2.18975
H         18.55576      -11.21036       -3.90994
H         18.44391      -13.65764       -4.34547
H         18.15282      -13.98608       -2.63899
H         20.38047      -13.19266       -1.99848
H         20.63417      -12.44364       -3.58724
H         20.98286      -13.79283       -5.61060
H         22.78077      -16.51883       -7.14233
H         21.86182      -15.04766       -7.45805
H         20.85340      -17.95757       -7.42115
H         20.90175      -16.84694       -8.78160
H         19.09726      -16.61075       -6.30302
H         18.84775      -14.94288       -8.85576
H         19.73243      -14.38252       -7.45347
H         17.58020      -14.93016       -6.07015
H         16.73675      -14.95958       -7.60887
H         18.40581      -12.54893       -6.58738
H         15.26947      -13.77840       -8.34373
H         15.12387      -12.17156       -9.08850
H         14.40722      -12.47087       -7.50685
H         17.56848      -10.44785       -6.76973
H         15.79126      -10.36504       -6.68974
H         16.60123      -10.20972       -8.24808
H         18.38650      -17.44689       -9.17259
H         17.25071      -17.30707       -7.81703
H         18.51922      -18.54133       -7.77991
H         22.00779      -17.83035       -5.03624
H         20.70218      -15.70255       -1.73616
H         21.44414      -20.27169       -1.30880
H         20.87675      -19.38347        0.14566
H         23.21114      -18.51239        0.50356
H         23.77188      -19.41821       -0.91547
H         23.11102      -21.57708        0.20124
H         22.55469      -20.68213        1.61457
H         25.46511      -20.72068        0.57822
H         24.85597      -21.59366        1.99573
H         24.90492      -19.82143        2.00321
