52

N          1.75559        1.43743        0.04783
C          2.90373        0.78904       -0.21361
C          3.96635        1.52704       -0.81384
C          5.20541        0.96568       -0.99467
C          5.42783       -0.34774       -0.58192
N          4.43585       -1.07521       -0.03597
C          3.15815       -0.57694        0.12558
C          2.15679       -1.47639        0.81874
O          2.41470       -2.01803        1.86986
C          0.82677       -1.85575        0.06679
C         -0.45214       -2.13217        0.94643
C         -0.97174       -0.94258        1.84282
C         -1.68855        0.17955        1.03530
O         -1.05630        1.06799        0.50052
O         -3.00484        0.02410        1.02458
F         -1.78290       -1.45585        2.78576
F          0.10999       -0.36452        2.45742
F         -1.45309       -2.46833        0.08554
F         -0.19425       -3.18492        1.74712
F          0.51799       -0.94650       -0.89882
F          1.11547       -3.03442       -0.57086
C          4.80506       -2.48698        0.32021
C          4.35178       -3.48277       -0.75759
C          5.08446       -4.83565       -0.66888
C          6.19921       -5.10736       -1.75189
C          7.47673       -4.18172       -1.84180
C          8.53968       -4.07552       -0.67755
C          9.29708       -5.34532       -0.11988
C         10.16005       -6.20202       -1.12035
F         11.01600       -5.41846       -1.79831
F         10.85472       -7.10155       -0.40973
F          9.37357       -6.85347       -1.99444
F         10.14175       -4.86308        0.82706
F          8.39543       -6.16098        0.47740
F          9.46782       -3.19207       -1.11990
F          7.91355       -3.50843        0.40153
F          8.13531       -4.53268       -2.96525
F          7.01532       -2.88964       -2.01350
F          6.60871       -6.38744       -1.62627
F          5.58386       -4.96577       -2.96508
F          5.62157       -5.02830        0.57674
F          4.17073       -5.83155       -0.86955
H          1.66552        2.39380       -0.27524
H          0.87667        1.02657        0.37050
H          3.77737        2.55740       -1.11982
H          6.02277        1.52607       -1.44481
H          6.38615       -0.84702       -0.69302
H         -3.40490        0.74946        0.50046
H          4.38123       -2.71895        1.29917
H          5.89163       -2.47863        0.42536
H          4.49262       -3.06434       -1.76211
H          3.28705       -3.71758       -0.65049
