41

C          0.61426       -0.12875       -0.25926
C          2.13667       -0.16371       -0.12175
C          2.80644       -0.96094       -1.25043
C          4.33942       -1.00625       -1.13073
N          4.86834       -2.43602       -0.86555
C          4.36321       -3.03199        0.43693
C          5.17363       -4.25342        0.88284
C          4.81454       -4.60487        2.31233
C          3.76582       -5.49321        2.58528
C          3.41097       -5.78215        3.90488
C          4.10217       -5.18466        4.96190
C          5.15135       -4.29987        4.69745
C          5.50457       -4.01037        3.37846
C          4.67848       -3.31711       -2.07955
C          5.32470       -2.65547       -3.29294
O          4.82801       -1.33113       -3.49342
C          5.11488       -0.53116       -2.37159
Br         4.66713        1.30760       -2.78870
H          0.16017        0.45128        0.55373
H          0.18298       -1.14010       -0.22576
H          0.30870        0.33340       -1.20847
H          2.41173       -0.59776        0.85459
H          2.53821        0.86225       -0.12721
H          2.54868       -0.52146       -2.22473
H          2.38681       -1.97891       -1.27470
H          4.68150       -0.42595       -0.26069
H          5.88814       -2.33171       -0.74099
H          3.30088       -3.27043        0.30441
H          4.44367       -2.22885        1.18189
H          6.25176       -4.02636        0.81900
H          4.97891       -5.11356        0.22636
H          3.23021       -5.97411        1.76323
H          2.59845       -6.48054        4.10648
H          3.82930       -5.41477        5.99189
H          5.70184       -3.84099        5.51903
H          6.33563       -3.32897        3.17868
H          3.59929       -3.45140       -2.21860
H          5.13924       -4.29000       -1.87132
H          5.08008       -3.22282       -4.19911
H          6.42751       -2.63527       -3.18614
H          6.20398       -0.52191       -2.16915
