74

C          9.96334        7.60586        0.07171
C          9.97013        6.08960        0.28237
C         10.08812        5.29450       -1.02291
C         10.11660        3.77627       -0.81840
C         10.25918        2.98290       -2.12145
C         10.33532        1.46672       -1.91323
C         10.54025        0.68046       -3.21251
C         10.67157       -0.83175       -3.00222
C         10.97620       -1.60218       -4.29176
C         11.15255       -3.11023       -4.06864
C         11.45923       -3.92302       -5.33608
C         12.81150       -3.56325       -5.95562
N         13.10028       -4.40774       -7.12065
C         13.92258       -4.07363       -8.11811
N         14.75878       -3.02860       -8.02461
N         13.92399       -4.80205       -9.27113
C         15.09633       -4.82798      -10.14706
C         15.19090       -3.62772      -11.10071
O         15.00272       -2.47620      -10.72897
O         15.52660       -4.00452      -12.32870
C         15.74549       -2.93741      -13.32707
C         17.16232       -2.38705      -13.26120
C         17.39196       -1.34029      -14.35771
C         12.72566       -5.53435       -9.71116
C         12.71532       -7.01941       -9.36891
O         12.75356       -7.13770       -7.93781
C         12.40816       -8.41097       -7.40806
C         10.92592       -8.46363       -7.02606
F         10.61690       -7.48445       -6.13558
F         10.11787       -8.28920       -8.10607
F         10.62918       -9.65352       -6.46558
H          9.87648        8.14527        1.02483
H          9.12092        7.91790       -0.56374
H         10.88819        7.94534       -0.41843
H          9.05032        5.78575        0.81010
H         10.80449        5.81443        0.94971
H         11.00329        5.60717       -1.55679
H          9.24745        5.55945       -1.68842
H          9.19755        3.45962       -0.29483
H         10.95121        3.51678       -0.14313
H         11.16675        3.32083       -2.65298
H          9.41315        3.21989       -2.79026
H          9.41624        1.11673       -1.41187
H         11.16283        1.23806       -1.21861
H         11.44713        1.05543       -3.71996
H          9.70315        0.88447       -3.90275
H          9.74541       -1.22508       -2.54919
H         11.47296       -1.02723       -2.26829
H         11.88716       -1.17070       -4.74320
H         10.16694       -1.43361       -5.02399
H         10.23448       -3.51798       -3.61830
H         11.95030       -3.28215       -3.32509
H         10.66739       -3.76757       -6.08715
H         11.45462       -4.99707       -5.08900
H         13.60916       -3.67717       -5.19981
H         12.81280       -2.51503       -6.28945
H         12.75144       -5.37284       -7.12804
H         14.89495       -2.56615       -7.13481
H         15.00307       -2.54412       -8.90281
H         15.08853       -5.76255      -10.71966
H         16.01090       -4.82742       -9.53320
H         14.99345       -2.15555      -13.15694
H         15.54596       -3.44225      -14.28016
H         17.87740       -3.21658      -13.37000
H         17.33205       -1.93471      -12.27249
H         17.26906       -1.77219      -15.36107
H         18.40895       -0.93413      -14.29429
H         16.69093       -0.49853      -14.26487
H         12.64279       -5.42196      -10.80227
H         11.84604       -5.04810       -9.26818
H         13.58359       -7.54586       -9.80445
H         11.79483       -7.46081       -9.78240
H         12.99675       -8.56755       -6.49387
H         12.62274       -9.22869       -8.11319
