69

C          0.64470       -0.23909        0.00256
C          2.17435       -0.18653        0.04005
C          2.74688        1.18425       -0.33776
C          4.27814        1.23747       -0.32395
C          4.85118        2.60259       -0.71806
C          6.38290        2.64463       -0.74140
C          6.95191        4.00541       -1.15539
C          8.48273        4.04544       -1.21310
C          9.03999        5.40840       -1.63701
C         10.56983        5.45566       -1.70767
C         11.11811        6.82645       -2.11751
C         12.64884        6.88420       -2.17303
C         13.18445        8.27265       -2.53791
C         14.71583        8.35422       -2.54395
C         15.22110        9.76984       -2.86491
C         16.74475        9.85311       -2.77266
S         17.35243       11.50183       -3.29901
C         16.54392       12.56867       -1.78371
O         16.90860       12.29447       -0.69284
C         15.58015       13.57589       -2.28988
C         19.09487       11.52596       -2.72437
C         20.00902       10.53886       -3.47127
C         20.01976       10.77253       -4.98653
C         21.41791       10.66600       -2.86631
H          0.26792       -1.23454        0.27512
H          0.26141       -0.00231       -1.00130
H          0.20258        0.48590        0.70245
H          2.58537       -0.94981       -0.64250
H          2.52876       -0.46255        1.04773
H          2.34712        1.94877        0.35206
H          2.38187        1.46607       -1.34149
H          4.67377        0.46666       -1.00892
H          4.64493        0.96296        0.68088
H          4.47473        3.37240       -0.02137
H          4.46568        2.88472       -1.71381
H          6.75650        1.86852       -1.43260
H          6.77248        2.37216        0.25532
H          6.59343        4.77958       -0.45408
H          6.54468        4.28373       -2.14348
H          8.84166        3.27049       -1.91315
H          8.89450        3.77300       -0.22536
H          8.68437        6.18131       -0.93282
H          8.62088        5.68271       -2.62113
H         10.92731        4.69067       -2.41905
H         10.98979        5.17460       -0.72591
H         10.75276        7.58986       -1.40797
H         10.70501        7.10740       -3.10209
H         13.01964        6.14307       -2.90204
H         13.06068        6.58066       -1.19481
H         12.78730        9.01218       -1.82038
H         12.79733        8.56942       -3.52798
H         15.12635        7.64326       -3.28050
H         15.10448        8.04182       -1.55996
H         14.76424       10.47710       -2.15227
H         14.88575       10.06536       -3.87242
H         17.23417        9.14917       -3.46127
H         17.12082        9.67782       -1.75403
H         14.80697       13.07584       -2.89312
H         16.10320       14.27157       -2.96490
H         15.13053       14.11881       -1.45074
H         19.06893       11.34120       -1.64070
H         19.41280       12.56600       -2.90193
H         19.65065        9.51560       -3.26759
H         20.35375       11.79256       -5.22927
H         19.03022       10.62589       -5.44458
H         20.70993       10.07359       -5.47532
H         21.83305       11.67097       -3.03235
H         22.09395        9.94459       -3.34299
H         21.42255       10.46687       -1.78623
