73

C          2.26851       -9.22686        9.09668
C          3.67910       -9.58126        8.62020
C          4.01609       -9.00469        7.24067
C          5.42669       -9.35271        6.75558
C          5.77271       -8.74090        5.39478
C          7.19889       -9.05062        4.93059
C          7.58624       -8.33449        3.63221
C          9.03545       -8.61035        3.21229
C          9.49298       -7.73250        2.05897
O         10.91116       -7.93702        1.85932
C         11.59141       -6.87261        1.17671
C         13.07949       -6.93109        1.57821
C         13.74258       -8.26980        1.09171
C         13.83541       -9.18118        2.33143
N         13.02107       -8.46018        3.36998
C         13.25662       -6.97966        3.12082
C         12.35647       -6.09830        3.97770
C         12.54457       -6.26213        5.49432
C         11.51302       -5.46930        6.31461
C         10.07376       -5.99109        6.20343
C          9.07558       -5.22219        7.07729
C          7.64828       -5.76556        6.98311
C         13.88153       -5.73916        1.02854
O         14.85111       -5.28034        1.59969
O         13.39929       -5.33017       -0.15258
C         14.11031       -4.21669       -0.80649
C         13.59694       -2.87736       -0.31483
H          2.06226       -9.64523       10.09113
H          1.50434       -9.61685        8.40799
H          2.12945       -8.13716        9.15951
H          3.79591      -10.67806        8.59446
H          4.41831       -9.21706        9.35417
H          3.90156       -7.90628        7.26778
H          3.27672       -9.36505        6.50392
H          5.53820      -10.45006        6.70587
H          6.16250       -9.00986        7.50517
H          5.63721       -7.64675        5.44621
H          5.05411       -9.09711        4.63673
H          7.31886      -10.14055        4.80418
H          7.90962       -8.75653        5.72312
H          7.45202       -7.24780        3.77151
H          6.89901       -8.62673        2.82115
H          9.16090       -9.67239        2.94623
H          9.69380       -8.41486        4.07780
H          9.32141       -6.66664        2.29665
H          8.95490       -7.96134        1.12378
H         11.15069       -5.90392        1.46701
H         11.48519       -6.97668        0.08588
H         14.74463       -8.08788        0.68673
H         13.13851       -8.72727        0.30065
H         14.85931       -9.26780        2.71327
H         13.42049      -10.18383        2.18234
H         13.23027       -8.74582        4.33211
H         12.00627       -8.59367        3.14723
H         14.31587       -6.78508        3.34769
H         11.30514       -6.27653        3.71698
H         12.57647       -5.05543        3.70045
H         13.56339       -5.94948        5.77257
H         12.45586       -7.32623        5.78590
H         11.55050       -4.40787        6.01589
H         11.81949       -5.49366        7.37195
H         10.05381       -7.05984        6.48560
H          9.72476       -5.94802        5.15630
H          9.08669       -4.15848        6.78672
H          9.41491       -5.25188        8.12584
H          7.27159       -5.72898        5.94983
H          6.95637       -5.18332        7.60581
H          7.59291       -6.81138        7.31879
H         13.90017       -4.37472       -1.87060
H         15.18375       -4.34205       -0.61678
H         12.51315       -2.78667       -0.46608
H         14.08540       -2.07484       -0.88423
H         13.82988       -2.72384        0.74638
