68

C          1.31464       -0.66394       -0.52887
C          2.56783       -0.05064        0.10022
C          3.25143       -0.98771        1.10345
C          4.50442       -0.37195        1.74135
C          5.16072       -1.33696        2.70605
O          6.33811       -0.66365        3.29244
C          7.09014       -1.38080        4.11193
O          6.87757       -2.54679        4.43414
C          8.29984       -0.59219        4.61481
C          8.90467       -1.25659        5.84239
C         10.20522       -0.70803        6.42030
O         10.75929       -1.79715        7.16314
C         10.30778       -3.07102        6.68912
N          9.33045       -2.67461        5.55676
C         11.44750       -3.90544        6.10768
C         12.22817       -3.27584        4.92679
C         13.74876       -3.46368        5.11407
C         14.33742       -2.66954        6.28268
C         11.78256       -3.84341        3.56743
C          9.49186       -3.77889        7.78314
C         10.30261       -4.01161        9.08038
O         11.53461       -4.03229        9.05927
N          9.58916       -4.21831       10.22285
C          8.12469       -4.24053       10.30565
C          7.49491       -2.90448       10.71206
C         10.36318       -4.43877       11.46162
C         10.88231       -3.15399       12.11051
H          0.84869        0.02722       -1.24347
H          0.56153       -0.90900        0.23467
H          1.55154       -1.59148       -1.07103
H          2.30550        0.89342        0.60649
H          3.28712        0.21834       -0.69145
H          3.51981       -1.93015        0.59533
H          2.53189       -1.26215        1.89418
H          4.23777        0.55334        2.27610
H          5.22658       -0.09177        0.95822
H          5.51109       -2.25508        2.21366
H          4.49675       -1.62114        3.53500
H          7.99768        0.43690        4.85282
H          9.03431       -0.51270        3.79513
H          8.14737       -1.33222        6.63579
H         10.03810        0.12987        7.10852
H         10.89751       -0.38032        5.62264
H          8.47949       -3.25382        5.43857
H          9.84849       -2.72185        4.66480
H         11.04947       -4.89314        5.82178
H         12.10098       -4.08443        6.97110
H         12.05896       -2.18231        4.92682
H         14.25192       -3.16781        4.17971
H         13.95668       -4.53987        5.24158
H         14.19390       -1.58822        6.13890
H         15.41641       -2.85074        6.36910
H         13.88158       -2.93773        7.24627
H         12.00586       -4.91889        3.50486
H         12.30279       -3.34505        2.73846
H         10.69943       -3.74891        3.36338
H          9.15137       -4.75725        7.40474
H          8.59675       -3.17849        7.99688
H          7.85595       -5.01780       11.03564
H          7.71284       -4.58490        9.34793
H          7.81587       -2.59937       11.71542
H          6.39946       -2.98836       10.72033
H          7.77485       -2.10096       10.01522
H         11.20886       -5.09091       11.20581
H          9.70778       -4.98839       12.15122
H         11.54862       -2.61380       11.42683
H         11.45616       -3.40489       13.01300
H         10.06492       -2.48489       12.40873
