82

C          0.67398        0.43188        0.35081
C          2.20133        0.33900        0.29909
C          2.78832        0.70787       -1.06802
C          4.31713        0.62524       -1.12529
C          4.90516        1.00043       -2.48962
C          6.43468        0.92362       -2.54168
C          7.02674        1.30570       -3.90236
C          8.55676        1.23094       -3.94935
C          9.15157        1.61647       -5.30793
C         10.68157        1.53530       -5.35736
C         11.27014        1.91643       -6.72006
C         12.79852        1.81539       -6.78895
C         13.36683        2.18792       -8.16306
C         14.89169        2.06186       -8.26532
C         15.43217        2.45033       -9.64667
C         16.95143        2.29198       -9.78855
C         17.45956        2.73112      -11.16851
C         18.99270        2.70844      -11.34776
P         19.77194        1.07661      -11.15406
C         19.00173       -0.14471      -12.26245
C         19.58632       -1.54923      -12.08296
O         19.57410       -1.82543      -10.69563
C         19.96290       -3.17187      -10.37394
C         19.67187       -3.40103       -8.89652
O         20.09710       -4.71355       -8.60035
C         19.79979       -5.10437       -7.26268
C         21.57276        1.15419      -11.38553
C         22.27367        2.11958      -10.41803
H          0.28581        0.16187        1.34261
H          0.20781       -0.24277       -0.38295
H          0.32818        1.45180        0.12525
H          2.51792       -0.68390        0.56516
H          2.63681        0.99803        1.06942
H          2.46776        1.73002       -1.33728
H          2.35713        0.04558       -1.83978
H          4.63728       -0.39772       -0.85912
H          4.74635        1.28503       -0.35053
H          4.58229        2.02218       -2.75675
H          4.47968        0.33883       -3.26482
H          6.75724       -0.09919       -2.27802
H          6.85843        1.58201       -1.76280
H          6.70323        2.32804       -4.16636
H          6.60507        0.64667       -4.68183
H          8.87921        0.20766       -3.68742
H          8.97737        1.88777       -3.16754
H          8.83211        2.64100       -5.56810
H          8.72734        0.96214       -6.08997
H         11.00006        0.51073       -5.09568
H         11.10748        2.19131       -4.57787
H         10.96166        2.94557       -6.97480
H         10.82934        1.26958       -7.49907
H         13.10780        0.78709       -6.53097
H         13.24478        2.46758       -6.01785
H         13.07099        3.22248       -8.40990
H         12.89920        1.54985       -8.93342
H         15.18881        1.02411       -8.03143
H         15.36620        2.69456       -7.49513
H         15.15814        3.49704       -9.86364
H         14.93139        1.84102      -10.41917
H         17.21474        1.23605       -9.59405
H         17.46004        2.88121       -9.00552
H         17.14235        3.76818      -11.35806
H         16.98174        2.13032      -11.95886
H         19.48261        3.36554      -10.61150
H         19.28437        3.07074      -12.34678
H         19.55373        0.64658       -9.82964
H         19.12392        0.21424      -13.29519
H         17.92706       -0.14151      -12.02695
H         20.61153       -1.60978      -12.49837
H         18.96412       -2.27157      -12.64251
H         21.03676       -3.32363      -10.58262
H         19.38673       -3.88705      -10.98608
H         18.58772       -3.27454       -8.70441
H         20.21140       -2.65286       -8.27957
H         20.16451       -6.13086       -7.14565
H         18.71228       -5.08135       -7.07027
H         20.30777       -4.45292       -6.52932
H         21.75077        1.42791      -12.43721
H         21.93596        0.12389      -11.25053
H         21.97910        3.16271      -10.58785
H         23.35848        2.05607      -10.56684
H         22.06891        1.86606       -9.36905
