81

C          3.22357        3.29417        6.24303
C          4.20650        2.76228        5.19693
C          4.85207        1.42933        5.59198
C          5.82426        0.88152        4.54243
C          6.51427       -0.41946        4.96514
C          7.48469       -0.96704        3.91359
C          8.22329       -2.23145        4.36307
C          9.20974       -2.76382        3.31774
C          9.97259       -4.00600        3.79423
C         10.96411       -4.51359        2.76290
O         11.67770       -5.63343        3.32820
C         12.62899       -6.20694        2.45983
C         13.30846       -7.32103        3.26601
N         12.25947       -8.18072        3.83576
C         12.05940       -9.35019        3.27360
S         13.21425       -9.75840        2.08559
C         14.24110       -8.24469        2.44910
C         15.54216       -8.62491        3.15866
C         16.50495       -9.45331        2.30259
C         17.81807       -9.77617        3.02508
C         18.83041      -10.51631        2.14478
C         20.13772      -10.84774        2.87238
C         21.18801      -11.51214        1.97616
C         22.48594      -11.85961        2.71263
C         23.55649      -12.48752        1.81290
C         24.84308      -12.84260        2.56254
C         10.91799      -10.25034        3.62558
C          9.57390       -9.52637        3.85461
C          9.06756       -8.75324        2.63370
H          2.78982        4.25584        5.93665
H          3.71854        3.44792        7.21370
H          2.39271        2.59138        6.40494
H          4.99987        3.50906        5.02300
H          3.68853        2.64317        4.23020
H          4.06068        0.68268        5.78227
H          5.38395        1.55427        6.55190
H          6.59292        1.64409        4.32492
H          5.28450        0.71928        3.59285
H          5.75015       -1.18387        5.19168
H          7.05993       -0.24977        5.91009
H          8.22356       -0.18686        3.65957
H          6.93375       -1.17600        2.97982
H          7.48970       -3.01901        4.60956
H          8.76737       -2.02084        5.30040
H          9.93047       -1.96823        3.06160
H          8.66658       -2.99485        2.38512
H          9.26188       -4.81342        4.03782
H         10.51966       -3.77379        4.72232
H         11.69053       -3.72619        2.48924
H         10.45120       -4.83834        1.83770
H         13.39459       -5.47503        2.13741
H         12.14996       -6.62487        1.55029
H         13.86494       -6.86790        4.10009
H         11.56770       -7.75237        4.45251
H         14.45728       -7.79500        1.46872
H         15.30984       -9.14908        4.10129
H         16.03230       -7.67752        3.44457
H         16.72289       -8.90276        1.37096
H         16.01932      -10.39654        1.99560
H         17.60139      -10.37673        3.92549
H         18.27173       -8.83763        3.38830
H         19.05366       -9.90108        1.25544
H         18.37648      -11.44737        1.76267
H         19.92016      -11.50515        3.73241
H         20.56049       -9.92171        3.30021
H         21.41739      -10.84256        1.12844
H         20.76393      -12.42893        1.53011
H         22.25984      -12.54899        3.54535
H         22.89548      -10.94703        3.18100
H         23.78939      -11.79247        0.98839
H         23.14499      -13.39340        1.33628
H         25.29561      -11.95244        3.02449
H         25.59191      -13.28385        1.89080
H         24.64994      -13.56867        3.36634
H         11.21433      -10.80091        4.53592
H         10.82104      -11.00676        2.83330
H          9.64532       -8.86192        4.73226
H          8.84609      -10.29907        4.14021
H          9.73306       -7.92061        2.36126
H          8.07866       -8.32316        2.83578
H          8.97051       -9.40945        1.75729
