57

C          0.63610       -0.34039        0.02882
C          2.16652       -0.32356        0.04512
C          2.74682        0.16392        1.37801
C          4.27974        0.15601        1.40506
C          4.85190        0.67388        2.73507
C          6.37981        0.59838        2.73340
S          7.12798        1.45236        4.16898
C          6.72302        0.32495        5.53946
C          7.28838        0.93430        6.82691
O          7.95767        1.95111        6.82519
O          6.95186        0.18554        7.86883
C          7.45180        0.61791        9.19450
C          6.48528        1.57554        9.87031
C          6.97844        1.95674       11.27553
C          6.02775        2.91874       11.99244
C          8.92341        1.18371        3.92002
C          9.47586        2.08982        2.81927
C         11.00855        1.98362        2.75831
C         11.61270        2.88056        1.67399
C         13.14274        2.80849        1.63047
N         13.66455        3.72956        0.61918
H          0.25355       -0.68618       -0.94049
H          0.22108        0.66206        0.21009
H          0.23412       -1.01144        0.80185
H          2.53878        0.32048       -0.76917
H          2.54933       -1.33551       -0.16939
H          2.36351       -0.46856        2.19778
H          2.38226        1.18510        1.58439
H          4.66768        0.77568        0.57886
H          4.64552       -0.86868        1.22100
H          4.43954        0.07678        3.56386
H          4.52881        1.71487        2.89680
H          6.79717        1.14390        1.87366
H          6.75981       -0.43349        2.70810
H          7.13296       -0.67637        5.34634
H          5.62770        0.25438        5.58743
H          8.44242        1.06786        9.04822
H          7.54961       -0.32630        9.74359
H          5.49185        1.10411        9.93554
H          6.37820        2.48477        9.25740
H          7.97829        2.41472       11.19847
H          7.10495        1.04304       11.87949
H          5.90452        3.85486       11.42904
H          6.40756        3.17816       12.98899
H          5.03086        2.47323       12.12226
H          9.07606        0.11331        3.71693
H          9.35000        1.44004        4.89940
H          9.18766        3.13393        3.01993
H          9.05165        1.81854        1.83968
H         11.29850        0.93379        2.58130
H         11.42620        2.25941        3.74139
H         11.31957        3.92998        1.83633
H         11.20669        2.59375        0.68801
H         13.45394        1.75183        1.49076
H         13.54418        3.12425        2.60681
H         13.48929        3.37665       -0.32281
H         14.67524        3.83198        0.70723
