91

C          1.53342       -1.73921       -2.99649
C          2.81022       -1.36637       -2.23883
C          3.56416       -0.18859       -2.86525
C          4.84464        0.19831       -2.11870
C          5.59342        1.36778       -2.76495
C          6.87536        1.77184       -2.02995
C          7.62527        2.91858       -2.71462
C          8.90282        3.35393       -1.98922
C          9.66056        4.45805       -2.73257
C         10.92116        4.95037       -2.01259
C         11.67982        6.00261       -2.82932
C         12.90133        6.55736       -2.11636
O         13.57185        7.46008       -3.01751
C         14.69312        8.09201       -2.45650
C         15.35418        8.97998       -3.52134
C         16.80807        9.34320       -3.10455
S         16.76911       11.13644       -2.62583
C         15.24333       11.32807       -3.32617
N         14.62825       10.26168       -3.76266
C         13.42970       10.37518       -4.63500
C         12.08650        9.98570       -4.00089
C         11.66145       10.66488       -2.68708
C         11.07445       12.08747       -2.76131
S         12.31777       13.38866       -2.70167
O         13.10071       13.24787       -1.48764
O         12.99581       13.46729       -3.98102
O         11.40799       14.71509       -2.59413
C         17.90643        9.05496       -4.13167
C         17.70441        9.68562       -5.50703
O         16.65241       10.16647       -5.89453
O         18.83184        9.59534       -6.21927
C         18.80373       10.11217       -7.59531
C         19.25184       11.56467       -7.64622
C         19.29986       12.08845       -9.08792
C         19.78558       13.53877       -9.18515
C         19.80111       14.08134      -10.61870
C         20.29930       15.52539      -10.71280
H          1.01727       -2.58698       -2.52534
H          1.75475       -2.02237       -4.03651
H          0.82675       -0.89648       -3.02836
H          3.48029       -2.24157       -2.19143
H          2.56045       -1.12207       -1.19229
H          2.89295        0.68728       -2.91540
H          3.81419       -0.43424       -3.91284
H          5.51452       -0.67786       -2.06256
H          4.59606        0.45446       -1.07358
H          4.92006        2.24098       -2.82765
H          5.84165        1.10570       -3.80881
H          7.54312        0.89618       -1.94891
H          6.62872        2.06024       -0.99293
H          6.95075        3.78755       -2.81355
H          7.87946        2.61794       -3.74655
H          9.56591        2.48137       -1.85588
H          8.64861        3.69959       -0.97186
H          8.98376        5.31456       -2.90061
H          9.93725        4.09256       -3.73703
H         11.58636        4.09459       -1.80581
H         10.64347        5.36660       -1.02870
H         11.00137        6.83654       -3.07718
H         12.00318        5.56763       -3.78878
H         13.59805        5.74819       -1.82626
H         12.61557        7.10116       -1.19536
H         15.44736        7.34292       -2.14063
H         14.42866        8.69063       -1.55967
H         15.35308        8.43359       -4.47492
H         17.06057        8.80735       -2.18020
H         14.79179       12.31613       -3.44551
H         13.63030        9.72748       -5.49973
H         13.41645       11.41098       -4.98936
H         12.08987        8.90423       -3.82963
H         11.32947       10.17621       -4.77846
H         12.47291       10.64320       -1.94225
H         10.86457       10.04242       -2.25480
H         10.43230       12.28384       -1.89221
H         10.48772       12.26469       -3.67379
H         11.45218       15.04598       -1.67550
H         17.97062        7.96201       -4.27208
H         18.88939        9.35326       -3.73956
H         17.78785        9.98332       -7.99158
H         19.49651        9.45373       -8.13428
H         20.24657       11.65077       -7.18038
H         18.55978       12.18049       -7.04955
H         18.29674       12.00765       -9.54106
H         19.96025       11.44282       -9.69238
H         20.79955       13.61351       -8.75494
H         19.14305       14.18265       -8.55897
H         18.78536       14.01226      -11.04343
H         20.43473       13.43114      -11.24526
H         19.66333       16.20746      -10.12911
H         20.30051       15.88181      -11.75163
H         21.32565       15.62071      -10.32863
