30

C          1.45955       -0.24524       -0.10368
O          2.02886        1.08678       -0.12874
C          2.67964        1.46670        0.99385
S          4.50333        0.72739        1.02938
C          5.20355        1.85451       -0.33879
O          5.43572        3.01297       -0.13641
O          5.33621        1.10080       -1.40177
C          5.85880        1.77065       -2.63955
C          4.71960        2.30173       -3.47662
C          5.31021        1.55454        2.49081
C          4.35871        1.51520        3.68635
O          3.85760        0.18688        3.80991
C          6.63378        0.82728        2.72515
H          0.82949       -0.31797       -0.99465
H          0.85143       -0.38203        0.80198
H          2.25519       -1.00319       -0.14685
H          2.27691        1.06316        1.93650
H          2.82758        2.55358        1.00352
H          6.40417        0.95784       -3.13104
H          6.55470        2.55320       -2.31482
H          4.02034        1.50401       -3.75526
H          5.14030        2.72127       -4.40140
H          4.17577        3.10439       -2.96295
H          5.46423        2.59567        2.16954
H          3.54109        2.24687        3.56164
H          4.94257        1.82129        4.57165
H          3.46531        0.06498        4.68881
H          6.46927       -0.21155        3.03594
H          7.17976        1.34792        3.52431
H          7.27285        0.83567        1.83262
