35

Br         1.22473        1.12183        1.87714
C          2.79721        0.55116        0.85958
C          3.46361       -0.64295        1.52671
C          4.74230       -1.05393        0.75056
C          5.40579       -2.24041        1.39032
C          5.17816       -3.52864        0.84115
N          5.60251       -4.67650        1.39529
N          6.29558       -4.54116        2.50833
C          6.62021       -3.40770        3.12331
C          6.18576       -2.17328        2.58829
N          6.52036       -1.03963        3.29683
N          7.19102       -1.22826        4.52115
N          6.47560        0.21960        2.69046
C          4.41542       -3.76669       -0.44450
C          5.18319       -3.42500       -1.74040
C          6.51108       -4.14826       -1.90134
F          6.38880       -5.49103       -1.76926
F          7.05119       -3.89576       -3.11319
F          7.42446       -3.73717       -0.96253
H          3.45912        1.42351        0.81340
H          2.43502        0.31860       -0.14837
H          2.76127       -1.48904        1.56997
H          3.71535       -0.39149        2.56710
H          5.42988       -0.20300        0.72357
H          4.46702       -1.29509       -0.28097
H          6.60435       -5.43033        2.90784
H          7.20066       -3.47324        4.03879
H          6.66265       -0.77610        5.27153
H          8.12624       -0.81232        4.47843
H          7.42251        0.53999        2.46233
H          6.04225        0.89053        3.32867
H          3.47545       -3.19797       -0.44072
H          4.14470       -4.82955       -0.45760
H          5.40052       -2.35181       -1.82974
H          4.55897       -3.70166       -2.60078
