51

C          1.39075       -0.98702       -0.36779
C          2.82026       -0.51040       -0.63787
C          3.08315        0.92230       -0.15985
C          4.52032        1.39365       -0.40477
C          4.79077        2.82000        0.08800
C          6.24454        3.25861       -0.12874
C          6.52027        4.66082        0.38520
O          7.91026        4.96583        0.15002
C          8.30821        6.21930        0.66093
C          9.77625        6.35577        0.28039
C         10.61650        5.13598        0.70253
N         11.99531        5.72501        0.99562
C         11.74614        7.31315        0.82683
O         10.38654        7.42622        1.02285
C         12.53562        8.18446        1.77379
C         12.71444        9.57267        1.14569
O         12.73387        9.76665       -0.05231
O         12.87296       10.49637        2.09964
C         13.10750       11.85654        1.63184
C         12.55047        5.29358        2.27772
C         13.70958        4.65113        2.35889
H          1.23854       -2.01770       -0.71579
H          0.65294       -0.35131       -0.87943
H          1.15784       -0.96251        0.70747
H          3.03442       -0.57752       -1.71791
H          3.53514       -1.19201       -0.14647
H          2.85497        0.99293        0.91837
H          2.38032        1.60991       -0.66230
H          4.74812        1.33141       -1.48316
H          5.22025        0.69918        0.09249
H          4.54137        2.88664        1.16127
H          4.11114        3.52048       -0.42689
H          6.49414        3.21768       -1.20131
H          6.92441        2.55632        0.38135
H          6.31113        4.73440        1.46958
H          5.89184        5.40971       -0.13208
H          8.21034        6.26701        1.76526
H          7.72325        7.05354        0.23129
H          9.88448        6.54601       -0.80217
H         10.70555        4.35830       -0.06134
H         10.23935        4.69272        1.63085
H         12.65240        5.45241        0.25449
H         12.04428        7.49658       -0.22265
H         13.54403        7.77070        1.93214
H         12.04477        8.25733        2.75223
H         13.19715       12.45594        2.54087
H         12.26261       12.19318        1.02029
H         14.03090       11.89659        1.04231
H         11.91615        5.54526        3.12710
H         14.31209        4.40576        1.48167
H         14.09321        4.33880        3.32860
