56

O          7.13027        0.56462        1.69868
C          7.20485        1.15484        0.40921
C          6.00226        2.08429        0.28513
O          6.22127        2.96870       -0.82703
C          5.02982        3.70210       -1.19148
O          5.28320        4.39471       -2.37227
C          5.48742        5.80946       -2.30075
C          6.91313        6.22050       -1.93751
C          8.00793        5.32448       -2.55956
N          8.48419        4.52351       -1.38288
C          8.33901        5.52784       -0.23476
O          7.08256        6.08192       -0.50285
C          8.37739        4.90207        1.14425
C          8.13966        5.93862        2.24930
C          8.17377        5.30359        3.63942
C          7.86409        6.32326        4.73394
O          7.58503        7.47747        4.52144
O          7.91319        5.85335        6.01182
C          9.84300        3.87683       -1.53094
C          9.97803        3.10177       -2.81794
C          9.19646        1.94960       -2.99970
C          9.28074        1.20188       -4.17193
C         10.17020        1.60047       -5.17214
C         10.95599        2.73888       -4.99272
C         10.87782        3.51482       -3.82572
C         11.76451        4.73024       -3.68550
H          7.60689       -0.27887        1.69305
H          7.18576        0.40151       -0.39551
H          8.13853        1.74430        0.29721
H          5.88170        2.65632        1.22363
H          5.08018        1.50149        0.12462
H          4.74505        4.38120       -0.36721
H          4.23151        2.96662       -1.38623
H          4.78746        6.27569       -1.58841
H          5.25226        6.18455       -3.30649
H          7.06308        7.27568       -2.22002
H          8.85259        5.90319       -2.95004
H          7.62912        4.64703       -3.33082
H          7.74318        3.79528       -1.19368
H          9.15920        6.26069       -0.37730
H          9.35804        4.41995        1.28652
H          7.61093        4.11529        1.19497
H          7.16898        6.42976        2.09985
H          8.89504        6.73699        2.19458
H          9.15901        4.85070        3.84459
H          7.43788        4.48368        3.71267
H          8.15086        4.90950        6.02521
H          9.96000        3.22260       -0.65607
H         10.58370        4.68201       -1.45469
H          8.50868        1.63135       -2.21385
H          8.66734        0.30997       -4.29910
H         10.25776        1.02065       -6.09116
H         11.65473        3.03750       -5.77589
H         12.38587        4.85489       -4.57954
H         12.44808        4.65017       -2.82661
H         11.19307        5.66331       -3.56288
