37

C          0.94369       -0.05986        0.13196
C          2.19876       -0.24539        0.95919
O          3.11470        0.81908        0.64048
C          4.32154        0.74894        1.35966
C          5.11380        1.99979        0.96187
N          6.49851        1.97798        1.47883
C          7.40275        1.16538        0.92115
N          8.57372        0.83249        1.56243
C          8.76415        0.78751        2.89786
C          8.98735        0.71941        4.08378
N          7.19314        0.57102       -0.26303
C          6.93940        3.15975        2.24657
C          7.25086        4.32246        1.27130
C          7.91722        5.51915        1.99908
N          9.35722        5.24968        2.11422
O          8.11381        3.85750        0.24928
H          0.22656       -0.85975        0.35806
H          1.17150       -0.09613       -0.94127
H          0.46654        0.90287        0.35597
H          2.68138       -1.21690        0.74083
H          1.97206       -0.21737        2.04120
H          4.88801       -0.17172        1.11089
H          4.15060        0.74372        2.45422
H          4.63010        2.88904        1.38099
H          5.08251        2.12908       -0.13169
H          9.35496        0.56254        0.96608
H          9.17247        0.62316        5.13394
H          6.54671        0.96474       -0.93663
H          7.71454       -0.25400       -0.53360
H          7.82902        2.90263        2.83362
H          6.13771        3.42287        2.94973
H          6.31280        4.66102        0.80224
H          7.42051        5.71630        2.96313
H          7.77972        6.40859        1.37148
H          9.61708        4.86728        3.02189
H          9.91198        6.09020        1.96913
H          9.00726        4.13692        0.58250
