59

C          0.98549       -0.23338       -0.38584
C          2.48520       -0.33473       -0.09788
C          2.90379        0.41169        1.17438
C          4.40039        0.30029        1.48359
C          4.80578        1.04383        2.76136
C          6.29455        0.87114        3.10075
C          6.67189        1.45801        4.45995
C          6.67496        2.99384        4.54594
N          7.22429        3.52305        5.78075
C          8.54773        3.02649        6.10923
C          8.68935        1.47826        6.15231
N          8.08038        0.99075        4.81493
C         10.13865        0.94006        6.19955
C         11.08538        1.01809        4.97406
C         11.55503        2.44643        4.57823
C         10.92314        2.99121        3.29327
C         12.29239        0.10815        5.26327
C          7.82395        0.80788        7.25564
C          8.37300        0.68228        8.69037
C          8.36815        1.91370        9.58458
Br        10.01319        2.99848        9.40938
Br         7.15526       -0.61536        9.59229
H          0.71603       -0.78056       -1.29892
H          0.67344        0.81253       -0.52198
H          0.39032       -0.65196        0.43908
H          3.05474        0.06133       -0.95551
H          2.77345       -1.39588       -0.00720
H          2.32587        0.02212        2.03105
H          2.62571        1.47639        1.08143
H          4.98431        0.68799        0.63121
H          4.67418       -0.76499        1.58140
H          4.19908        0.67361        3.60592
H          4.56425        2.11360        2.65303
H          6.91828        1.32774        2.31163
H          6.52782       -0.20965        3.09855
H          6.01800        1.03929        5.23921
H          5.64814        3.35891        4.41837
H          7.25820        3.39519        3.69540
H          6.56678        3.47842        6.55619
H          8.86735        3.43159        7.07680
H          9.25080        3.42765        5.36545
H          8.10080       -0.03902        4.79775
H          8.72147        1.29575        4.06471
H         10.07187       -0.12519        6.48247
H         10.63005        1.43951        7.04889
H         10.58478        0.57378        4.08954
H         12.64431        2.42292        4.43060
H         11.39646        3.14264        5.41582
H         11.14705        2.33825        2.43702
H         11.30407        3.99224        3.05193
H          9.82534        3.08724        3.35611
H         12.86407        0.47928        6.12681
H         12.97078        0.08222        4.40065
H         11.98550       -0.92457        5.48127
H          7.62099       -0.22447        6.92869
H          6.84343        1.30305        7.31936
H          9.34579        0.18076        8.72568
H          8.36483        1.63173       10.63910
H          7.52611        2.58500        9.38130
