93

C          1.12845        0.48413       -0.20405
C          2.58842        0.03049       -0.12249
C          3.17150       -0.39136       -1.47604
C          4.63794       -0.82954       -1.40649
C          5.22260       -1.24125       -2.76177
C          6.70411       -1.62769       -2.70124
C          7.28468       -2.05143       -4.05444
C          8.78493       -2.36086       -4.01011
C          9.36665       -2.77710       -5.36518
C         10.87964       -3.02065       -5.33263
C         11.46211       -3.43212       -6.68887
C         12.98619       -3.59904       -6.66972
C         13.56570       -4.00269       -8.03043
C         15.09629       -4.07126       -8.02405
C         15.66206       -4.45753       -9.41762
C         17.15105       -4.39069       -9.44397
N         17.96367       -5.31706       -8.97176
C         17.56730       -6.67546       -8.62902
C         17.76931       -7.59970       -9.85155
O         18.08637       -7.18634      -10.94736
O         17.54158       -8.86200       -9.49871
C         17.69891       -9.87689      -10.56081
C         17.41762      -11.23571       -9.95406
C         17.59806      -12.35762      -10.98657
C         17.30727      -13.75082      -10.41496
C         17.50018      -14.86965      -11.44146
C         19.40845       -4.94073       -8.90142
C         19.57987       -3.80704       -9.92328
S         17.94121       -2.99321      -10.04186
C         19.77986       -4.56905       -7.45696
C         21.29791       -4.39262       -7.25030
C         21.62755       -4.07793       -5.80840
C         21.87588       -5.11064       -4.89288
C         22.14530       -4.82513       -3.55268
C         22.16771       -3.49961       -3.11111
C         21.92246       -2.46257       -4.01509
C         21.65412       -2.75144       -5.35473
H          0.74134        0.77802        0.78132
H          0.48121       -0.31809       -0.58896
H          1.01594        1.34826       -0.87586
H          2.67474       -0.80985        0.58717
H          3.20384        0.84377        0.29849
H          3.07565        0.44658       -2.18936
H          2.56292       -1.21243       -1.89485
H          4.73538       -1.66978       -0.69657
H          5.24293       -0.00789       -0.98396
H          5.09456       -0.41194       -3.47976
H          4.63937       -2.08512       -3.17059
H          6.84072       -2.44589       -1.97223
H          7.28476       -0.77459       -2.30768
H          7.10271       -1.25170       -4.79408
H          6.73790       -2.93542       -4.42713
H          8.97400       -3.15834       -3.26999
H          9.32651       -1.47237       -3.63993
H          9.14287       -1.99518       -6.11213
H          8.85473       -3.68852       -5.72054
H         11.11132       -3.79772       -4.58311
H         11.38591       -2.10367       -4.98286
H         11.19134       -2.67587       -7.44625
H         10.99235       -4.37432       -7.02072
H         13.26642       -4.35116       -5.91203
H         13.44950       -2.65157       -6.34399
H         13.24059       -3.27817       -8.79641
H         13.15185       -4.97860       -8.33713
H         15.44283       -4.79472       -7.26795
H         15.51236       -3.09449       -7.73083
H         15.26855       -3.76880      -10.17751
H         15.32714       -5.46517       -9.70675
H         16.51997       -6.70859       -8.30666
H         18.17357       -7.03188       -7.78618
H         18.72408       -9.79350      -10.94944
H         17.00219       -9.62250      -11.37224
H         16.39093      -11.25249       -9.55490
H         18.09460      -11.40013       -9.10049
H         18.62920      -12.33416      -11.37979
H         16.93892      -12.17413      -11.85269
H         16.27482      -13.77578      -10.02823
H         17.96203      -13.92886       -9.54557
H         16.83409      -14.73908      -12.30699
H         17.28527      -15.85322      -11.00357
H         18.53285      -14.89316      -11.81949
H         19.99122       -5.81344       -9.23253
H         19.83212       -4.17564      -10.92478
H         20.32179       -3.06691       -9.60607
H         19.42545       -5.36147       -6.77943
H         19.24788       -3.64989       -7.16261
H         21.67880       -3.58547       -7.89548
H         21.81585       -5.31435       -7.56069
H         21.87385       -6.14872       -5.23486
H         22.34749       -5.63840       -2.85475
H         22.38485       -3.27505       -2.06645
H         21.94961       -1.42575       -3.67810
H         21.47641       -1.93429       -6.05838
