31

C          2.20383        0.79721       -1.40364
C          3.71075        0.97671       -1.20544
C          4.06094        1.48268        0.20353
C          5.56117        1.63048        0.37822
O          5.87704        2.26153        1.69102
C          6.05511        1.46966        2.72127
O          6.03023        0.24163        2.74824
C          6.32915        2.22296        4.01534
S          6.42308        0.85859        5.24353
C          8.12914        0.20149        5.02408
C          8.37263       -0.98081        5.96449
C          9.73097       -1.61073        5.65007
Br        10.07763       -3.09727        6.86681
I          6.59100        2.11169        7.31447
H          1.98223        0.44462       -2.41891
H          1.66314        1.74241       -1.25316
H          1.79356        0.05932       -0.69912
H          4.10175        1.68491       -1.95404
H          4.22430        0.01912       -1.39016
H          3.66993        0.78027        0.95749
H          3.57845        2.45714        0.38092
H          5.99949        2.33296       -0.34014
H          6.08916        0.66953        0.33252
H          5.49751        2.87505        4.31580
H          7.25994        2.80540        4.00386
H          8.82923        1.03482        5.17377
H          8.12745       -0.10895        3.96874
H          7.58111       -1.73464        5.83911
H          8.35670       -0.65179        7.01369
H         10.55803       -0.90498        5.78789
H          9.76939       -2.02816        4.63757
