83

C          0.64440       -0.38977       -0.04073
C          2.11203        0.00263        0.14472
C          2.77045       -0.64784        1.36668
C          4.23733       -0.24776        1.55147
C          4.91927       -0.90289        2.75730
C          6.37922       -0.47003        2.92606
C          7.10490       -1.14120        4.09696
C          8.55551       -0.66727        4.24076
C          9.33489       -1.38159        5.35260
C         10.76296       -0.87578        5.44777
O         11.47064       -1.62988        6.45450
C         12.84887       -1.32041        6.52186
C         13.48230       -2.36509        7.45624
O         14.89662       -2.37375        7.41300
C         15.37931       -3.20051        6.36355
N         14.99708       -4.59405        6.60371
C         13.67600       -4.75726        6.80497
N         13.09447       -5.99137        6.73739
C         13.29725       -6.84826        5.56914
C         12.96485       -6.10634        4.26304
O         12.64070       -4.93263        4.23332
O         13.09862       -6.92317        3.22043
C         12.84622       -6.34745        1.88771
C         14.10010       -5.70442        1.31626
C         13.85678       -5.14779       -0.09427
C         15.10063       -4.48203       -0.68785
N         12.93568       -3.68488        7.09285
C         16.01103       -5.58979        7.00155
C         16.74628       -5.21346        8.29767
C         17.62190       -6.36000        8.82953
C         18.81484       -6.70367        7.92827
S         19.68334       -8.14718        8.58002
O         20.34350       -7.79613        9.81925
O         18.78745       -9.27265        8.48472
O         20.82256       -8.34894        7.43931
H          0.20788        0.09136       -0.92665
H          0.03865       -0.09423        0.82894
H          0.53320       -1.47731       -0.16505
H          2.19189        1.09949        0.23233
H          2.68300       -0.26851       -0.75972
H          2.69726       -1.74644        1.27850
H          2.20037       -0.38046        2.27401
H          4.30429        0.85017        1.64933
H          4.80086       -0.50152        0.63600
H          4.87064       -2.00132        2.65354
H          4.35590       -0.66093        3.67549
H          6.41925        0.62590        3.05417
H          6.92984       -0.68273        1.99248
H          7.08799       -2.23668        3.95924
H          6.55829       -0.94424        5.03535
H          8.56355        0.42048        4.42618
H          9.07875       -0.81448        3.27969
H          9.35365       -2.46677        5.15649
H          8.83269       -1.23963        6.32288
H         10.78938        0.19617        5.71529
H         11.28749       -0.99798        4.48116
H         13.03450       -0.31129        6.93051
H         13.31736       -1.38172        5.51973
H         13.21822       -2.15197        8.50370
H         16.46931       -3.11307        6.36135
H         14.97366       -2.89378        5.38544
H         12.14788       -6.00610        7.10906
H         12.65623       -7.73233        5.67506
H         14.32790       -7.22429        5.51094
H         12.02133       -5.62843        1.97816
H         12.51996       -7.20960        1.29367
H         14.91083       -6.45012        1.29199
H         14.42676       -4.88847        1.98130
H         13.02840       -4.42093       -0.06114
H         13.52198       -5.96280       -0.75657
H         15.43742       -3.63804       -0.06786
H         14.89929       -4.09360       -1.69449
H         15.93631       -5.19229       -0.76688
H         11.96704       -3.62935        6.76587
H         16.70445       -5.72060        6.15776
H         15.49296       -6.54477        7.15170
H         15.99696       -4.96219        9.06328
H         17.35696       -4.30865        8.15077
H         17.00321       -7.25994        8.97097
H         17.99738       -6.08005        9.82375
H         19.54694       -5.88590        7.87369
H         18.52320       -6.99104        6.90860
H         21.68293       -8.12878        7.84588
