48

C          2.17252        1.03996        2.28905
C          2.50743        0.07861        1.17833
O          3.48695       -0.91060        1.74167
C          4.15004       -1.63395        0.88232
O          4.14902       -1.66173       -0.31729
N          5.08449       -2.61440        1.61205
C          5.80736       -2.11979        2.87477
C          6.88727       -3.15440        3.23061
C          6.41029       -4.61013        3.27762
C          5.65312       -4.98278        1.99806
C          4.46484       -4.04668        1.73475
C          3.36036       -4.21525        2.78878
C          2.03122       -3.44428        2.68292
C          1.31769       -3.54995        1.33192
O          0.22359       -2.65018        1.25630
O          1.15555       -3.85400        3.73832
C          6.40486       -0.73190        2.61715
C          6.93961       -0.07072        3.90817
C          7.18400        1.38331        3.70724
C          8.35410        2.02612        3.79451
F          9.49858        1.41392        4.08433
F          8.51312        3.32291        3.61377
F          6.07534        2.11492        3.39665
H          1.44921        1.77291        1.90606
H          3.05855        1.58852        2.63393
H          1.70806        0.52635        3.14038
H          2.99596        0.55326        0.31864
H          1.64492       -0.51197        0.84161
H          5.81429       -2.74158        0.89278
H          5.03015       -2.06116        3.65026
H          7.31782       -2.86594        4.19916
H          7.70454       -3.05622        2.49370
H          5.77968       -4.77926        4.16266
H          7.27962       -5.27040        3.39560
H          5.27132       -6.01150        2.04864
H          6.33582       -4.95416        1.13127
H          4.06516       -4.22655        0.72648
H          3.75050       -4.04998        3.80215
H          3.12802       -5.29375        2.74058
H          2.19845       -2.38182        2.89826
H          0.99825       -4.59955        1.16439
H          1.97772       -3.28311        0.49175
H         -0.35397       -2.82494        2.01970
H          0.94650       -4.79862        3.63174
H          5.64197       -0.06358        2.20049
H          7.21985       -0.80512        1.87872
H          7.87036       -0.54167        4.24941
H          6.19817       -0.19205        4.71803
