77

C         15.09822        6.89320        0.96449
C         14.10484        5.73418        0.85672
C         14.73468        4.37150        1.16292
C         13.75624        3.19961        1.03938
C         14.39789        1.83738        1.32054
C         13.42971        0.65988        1.16828
C         14.08595       -0.70041        1.42281
C         13.12991       -1.88403        1.23907
C         13.81059       -3.23651        1.48332
C         12.86167       -4.40430        1.28331
O         13.57018       -5.63442        1.57458
C         12.75328       -6.77647        1.43930
N         13.47874       -7.93764        1.92597
C         14.63736       -8.34516        1.37569
N         15.27149       -9.48281        1.69410
C         16.56496       -9.59967        0.97347
C         16.42538       -8.47527       -0.11811
N         15.29526       -7.67975        0.42642
C         16.13979       -8.92300       -1.55540
C         15.90458       -7.73327       -2.50704
O         16.90994       -6.72344       -2.31665
C         15.80635       -8.17363       -3.96104
C         16.79805      -11.03034        0.49269
C         18.23037      -11.32026        0.01252
C         19.18069      -11.76618        1.14310
N         20.36638      -12.36718        0.53842
C         21.15627      -13.22209        1.43137
C         22.34203      -13.80966        0.68634
O         23.15192      -12.71151        0.24615
O         18.14472      -12.35319       -0.95283
H         14.62098        7.85647        0.73848
H         15.93655        6.76415        0.26375
H         15.52216        6.96107        1.97744
H         13.67138        5.71215       -0.15742
H         13.25939        5.90584        1.54406
H         15.16018        4.38776        2.18187
H         15.58809        4.20593        0.48163
H         13.32225        3.19402        0.02402
H         12.90918        3.35509        1.73028
H         14.81938        1.83489        2.34102
H         15.25426        1.69257        0.63858
H         12.99967        0.67203        0.15145
H         12.57938        0.79199        1.85978
H         14.50024       -0.72226        2.44569
H         14.94706       -0.82170        0.74272
H         12.71129       -1.85848        0.21825
H         12.27331       -1.77259        1.92571
H         14.20968       -3.27582        2.50926
H         14.66928       -3.34906        0.80147
H         12.48070       -4.43540        0.24529
H         11.99198       -4.32836        1.96223
H         12.47428       -6.94119        0.38043
H         11.82901       -6.69491        2.03698
H         13.24249       -8.30122        2.84289
H         14.81828      -10.26838        2.14715
H         17.36339       -9.31121        1.67734
H         17.31867       -7.83944       -0.11853
H         15.15226       -6.68234        0.28245
H         15.25676       -9.58129       -1.58773
H         16.99648       -9.51450       -1.91561
H         14.95912       -7.23920       -2.22282
H         17.63410       -6.88827       -2.94192
H         16.74548       -8.64710       -4.28848
H         15.60315       -7.31166       -4.60923
H         15.00016       -8.90661       -4.10243
H         16.11454      -11.27233       -0.33256
H         16.55660      -11.72594        1.31394
H         18.65346      -10.40096       -0.45371
H         18.67543      -12.55151        1.72938
H         19.39968      -10.92421        1.83205
H         20.98739      -11.65180        0.15257
H         20.51698      -14.04386        1.78923
H         21.52742      -12.67379        2.32022
H         21.98434      -14.40326       -0.17350
H         22.90433      -14.47370        1.36572
H         23.89445      -13.05903       -0.26974
H         19.02664      -12.79384       -0.88967
