63

C         10.42214        4.86670        1.62610
C          9.54333        3.72053        1.12041
C         10.17451        2.93776       -0.03632
C          9.30824        1.77642       -0.53225
C          9.94364        0.98223       -1.67796
C          9.08930       -0.20251       -2.13733
C          9.73692       -1.02370       -3.25753
C          8.87661       -2.21969       -3.68726
C          9.52102       -3.05323       -4.78885
O          8.65163       -4.11524       -5.26869
C          8.98499       -5.28732       -4.60821
N         10.55290       -5.24256       -4.68019
C         10.81151       -3.79618       -4.33742
C         11.15893       -5.68959       -5.99921
C         12.68077       -5.70428       -5.96456
C         13.29474       -6.54798       -4.83984
C         14.79903       -6.79009       -5.06237
N         15.01522       -7.51101       -6.31830
C          8.33339       -6.51822       -5.20281
C          6.90140       -6.77705       -4.67393
C          5.90632       -5.67350       -5.05948
C          6.42367       -8.15106       -5.16383
H          9.94214        5.40657        2.45340
H         10.62726        5.59605        0.82850
H         11.39161        4.49552        1.99090
H          8.56601        4.11783        0.79816
H          9.32729        3.02682        1.95074
H         11.15818        2.54888        0.28180
H         10.38003        3.62679       -0.87442
H          8.32654        2.16336       -0.85693
H          9.09913        1.09339        0.31007
H         10.93571        0.61514       -1.35986
H         10.12978        1.65478       -2.53339
H          8.10446        0.16104       -2.47699
H          8.88727       -0.86217       -1.27523
H         10.73032       -1.36663       -2.91589
H          9.92446       -0.37643       -4.13137
H          7.90549       -1.86495       -4.06405
H          8.66176       -2.86006       -2.81362
H          9.71931       -2.42610       -5.66972
H          8.79414       -5.23227       -3.51643
H         10.94264       -5.84509       -3.94421
H         11.71732       -3.45287       -4.84393
H         10.96276       -3.72588       -3.25330
H         10.75876       -5.02117       -6.77174
H         10.76997       -6.69976       -6.18084
H         13.08609       -4.68001       -5.93626
H         13.01638       -6.13091       -6.92304
H         12.78619       -7.52819       -4.78572
H         13.17015       -6.06736       -3.85262
H         15.21261       -7.29618       -4.17150
H         15.31018       -5.81761       -5.13467
H         14.90034       -8.51688       -6.19181
H         15.96007       -7.36585       -6.66993
H          8.95087       -7.39555       -4.94613
H          8.32336       -6.42952       -6.30045
H          6.96488       -6.81602       -3.57080
H          5.83171       -5.57395       -6.15281
H          6.18535       -4.69156       -4.65648
H          4.90597       -5.91869       -4.67953
H          6.35673       -8.17972       -6.26217
H          5.42500       -8.37650       -4.76771
H          7.09960       -8.95761       -4.84480
