76

C          1.23449        2.86547        1.96506
C          2.66565        2.44912        1.61698
C          3.27322        1.47241        2.62955
C          4.70235        1.03794        2.29029
C          5.29200        0.04677        3.29835
C          6.71847       -0.40058        2.96404
C          7.27510       -1.43121        3.95100
C          8.70530       -1.88026        3.63476
C          9.21383       -2.96802        4.58681
C         10.65540       -3.40449        4.30427
C         11.11540       -4.52728        5.23909
C         12.60537       -4.90152        5.02694
C         13.03113       -5.99714        5.95632
N         13.49935       -5.56764        7.14327
N         13.83010       -6.29516        8.20128
C         13.71535       -7.59572        8.02061
C         13.30348       -8.22795        6.81625
C         12.91583       -7.40096        5.74026
C         12.33338       -7.80250        4.39323
C         12.47608       -9.19289        3.77329
O         11.56844      -10.09359        4.38658
C         11.28895      -11.28539        3.63396
C         12.46746      -12.21814        3.40392
O         12.96121      -12.69367        4.64558
C         13.99995      -13.65738        4.47879
C         13.30825       -9.72912        6.82217
C         14.60948      -10.37926        6.27299
C         15.87704      -10.31021        7.11789
C         15.84750      -10.96009        8.54350
Br        15.19927      -12.80391        8.53466
F         17.06087      -10.91079        9.11364
F         15.00812      -10.22655        9.34123
Br        17.32797      -11.14955        6.08949
F         16.23028       -8.98308        7.33092
H          0.82738        3.56842        1.22538
H          1.18865        3.35567        2.94893
H          0.56272        1.99471        1.99946
H          3.30504        3.34558        1.54882
H          2.68345        1.98980        0.61406
H          2.62880        0.57822        2.70201
H          3.25983        1.93362        3.63295
H          5.35157        1.92917        2.22971
H          4.71729        0.58546        1.28304
H          4.63807       -0.84128        3.35764
H          5.27790        0.49780        4.30613
H          7.38304        0.48077        2.93809
H          6.73940       -0.82458        1.94470
H          6.61187       -2.31416        3.96330
H          7.24158       -1.01558        4.97335
H          9.38206       -1.00911        3.67523
H          8.75241       -2.25328        2.59678
H          8.54687       -3.84552        4.52418
H          9.14193       -2.60650        5.62738
H         11.33084       -2.53804        4.40889
H         10.74596       -3.73889        3.25664
H         10.48312       -5.41745        5.09367
H         10.97353       -4.22083        6.28904
H         13.23151       -4.01305        5.20925
H         12.77757       -5.18650        3.98157
H         13.60354       -4.56141        7.29267
H         13.97983       -8.19654        8.88977
H         12.74423       -7.10449        3.64959
H         11.25226       -7.57954        4.43017
H         13.51889       -9.55440        3.82066
H         12.22805       -9.08538        2.70100
H         10.86281      -11.01042        2.65107
H         10.51617      -11.80198        4.21807
H         13.27609      -11.72173        2.82868
H         12.10391      -13.05702        2.77765
H         14.30600      -13.97662        5.48195
H         14.87239      -13.22531        3.95545
H         13.64469      -14.53585        3.91326
H         12.49699      -10.11060        6.18772
H         13.11946      -10.07811        7.84499
H         14.87923       -9.92172        5.31216
H         14.37519      -11.42777        6.06180
