69

F          6.88184       -0.06412        2.64456
C          7.24332        0.80651        1.62092
C          7.39013        0.03802        0.31262
N          6.21887       -0.80651       -0.01673
C          6.17036       -2.14927       -0.17504
C          7.31056       -3.10955        0.01992
O          7.95239       -2.93914        1.27260
C          7.17596       -3.38395        2.38537
O          6.81790       -4.71854        2.17580
C          5.67290       -5.15699        2.93465
C          5.38075       -6.59091        2.52803
O          6.40651       -7.49320        2.91352
N          4.92105       -2.50355       -0.52526
N          4.19412       -1.40528       -0.59919
N          4.95761       -0.38326       -0.28935
C          4.41780        0.98982       -0.18225
O          5.29837        1.83074       -0.84051
C          5.00282        3.24165       -0.61482
C          6.20919        4.06155       -1.02327
C          5.95539        5.56334       -0.83573
C          7.19833        6.42524       -1.07920
C          6.93004        7.91628       -0.85507
C          8.17420        8.80095       -0.97452
C          7.88423       10.27763       -0.68944
C          9.12382       11.17566       -0.72940
C          8.82051       12.64081       -0.40075
C         10.05795       13.54280       -0.39692
C          9.75353       15.00169       -0.03941
C         10.99915       15.89000       -0.00355
H          8.21802        1.25880        1.85899
H          6.48974        1.60390        1.56459
H          8.22051       -0.67270        0.39088
H          7.55536        0.73387       -0.52013
H          8.07595       -2.94388       -0.75323
H          6.89884       -4.12148       -0.10637
H          6.26757       -2.75571        2.51319
H          7.84477       -3.24908        3.25128
H          4.80486       -4.50717        2.71139
H          5.89481       -5.10620        4.01438
H          5.18999       -6.63155        1.43882
H          4.46630       -6.92302        3.04035
H          7.21983       -7.24225        2.44690
H          4.31159        1.22833        0.89498
H          3.41482        0.90903       -0.63829
H          4.77046        3.38695        0.45681
H          4.10643        3.50965       -1.19904
H          6.46055        3.84389       -2.07326
H          7.07553        3.75208       -0.41384
H          5.58982        5.74751        0.18966
H          5.14430        5.88460       -1.51036
H          7.57022        6.26128       -2.10513
H          8.00736        6.09399       -0.40448
H          6.48894        8.05379        0.14815
H          6.16289        8.26086       -1.56992
H          8.60920        8.69604       -1.98366
H          8.94634        8.43910       -0.27273
H          7.40793       10.36505        0.30328
H          7.13812       10.64965       -1.41332
H          9.59496       11.11084       -1.72584
H          9.87389       10.79098       -0.01580
H          8.32861       12.69543        0.58664
H          8.08401       13.03226       -1.12459
H         10.54464       13.50391       -1.38741
H         10.79847       13.14123        0.31768
H          9.24708       15.03616        0.94023
H          9.02999       15.40901       -0.76594
H         11.71872       15.53744        0.75054
H         10.74536       16.93027        0.24227
H         11.51566       15.89498       -0.97495
