62

C         12.81772        6.06510       -4.15425
C         11.84101        6.04586       -2.97737
C         12.15451        4.94846       -1.95360
C         11.16714        4.94032       -0.77933
C         11.49305        3.84794        0.22440
O         10.55661        3.87698        1.36866
C          9.44518        3.14510        1.23184
O          9.11514        2.46678        0.28897
C          8.55107        3.18489        2.48535
N          8.91102        4.16362        3.50367
N          9.56076        3.86845        4.60405
N          9.76450        4.98634        5.27706
C          9.21758        6.00045        4.58379
N          8.66876        5.50492        3.44669
C          7.99750        6.16195        2.36269
C          8.71913        7.06603        1.57888
C          8.06622        7.77751        0.57505
C          6.69740        7.57359        0.37326
C          5.97509        6.66513        1.14872
C          6.61546        5.93255        2.15882
O          6.03227        5.00628        2.94817
C          4.59348        4.90863        2.94609
C          9.19450        7.40615        5.05350
C          7.74740        7.82909        5.45045
O          6.79901        7.13195        5.08160
N          7.61222        8.97171        6.16697
C          8.71047        9.83866        6.61650
C          9.00079       11.00000        5.66316
C          6.24089        9.40259        6.50982
C          5.75442        8.82742        7.83891
H         12.56204        6.85681       -4.87086
H         12.80621        5.10886       -4.69671
H         13.84838        6.24291       -3.81479
H         10.81308        5.90508       -3.35108
H         11.85193        7.02604       -2.47097
H         13.18220        5.08405       -1.57508
H         12.13762        3.96625       -2.45495
H         10.14418        4.78992       -1.15848
H         11.18846        5.91875       -0.27204
H         12.47467        3.99391        0.69198
H         11.44209        2.84908       -0.22721
H          8.62495        2.21111        2.98696
H          7.50949        3.34824        2.18764
H          9.78704        7.19533        1.75797
H          8.62098        8.47968       -0.04540
H          6.17726        8.12823       -0.40814
H          4.91094        6.52383        0.96867
H          4.35372        4.16906        3.71565
H          4.22325        4.56177        1.97055
H          4.14644        5.87711        3.20758
H          9.56077        8.08848        4.27232
H          9.89280        7.45963        5.89783
H          9.61434        9.23808        6.77947
H          8.42667       10.22436        7.60658
H          9.33649       10.64148        4.68013
H          9.79014       11.64030        6.07892
H          8.10963       11.62261        5.50914
H          5.58163        9.08606        5.69243
H          6.24572       10.50138        6.53571
H          5.71221        7.73182        7.79523
H          4.74517        9.20050        8.05888
H          6.40789        9.12001        8.67231
