57

F          2.07058       -1.68474        1.76795
C          3.16347       -1.03620        1.18423
C          3.49203        0.19728        2.01358
C          4.79450        0.87903        1.54141
C          5.21551        2.04405        2.39834
N          5.99300        1.74317        3.47579
C          6.57145        2.70944        4.26440
C          6.29887        4.02230        4.06711
C          5.41656        4.41736        3.03351
C          4.87137        3.41898        2.13516
C          4.02093        3.89844        1.05372
C          3.76726        5.26281        0.98642
C          4.29313        6.20906        1.88478
C          5.12085        5.79107        2.89651
C          3.40183        3.02501       -0.02913
C          2.37741        3.71900       -0.93402
C          1.62215        2.78843       -1.88203
C          2.44818        2.16204       -3.09296
C          2.93357        0.65803       -3.00787
C          1.87881       -0.52236       -3.05294
F          0.91539       -0.27596       -3.95010
F          2.53100       -1.64596       -3.40257
F          1.31615       -0.73049       -1.84853
F          3.75795        0.48158       -4.06622
F          3.67804        0.50193       -1.86325
F          1.74473        2.29275       -4.23655
F          3.59897        2.89962       -3.22525
F          1.03856        1.76403       -1.17227
F          0.60801        3.51162       -2.43960
C          6.29913        0.35476        3.92880
C          5.88620        0.02456        5.39660
C          4.38265       -0.13038        5.64591
N          3.65834        1.11159        5.35003
O          6.60227       -1.14525        5.75932
H          2.89060       -0.78419        0.15060
H          4.00530       -1.74914        1.16779
H          3.58543       -0.10065        3.06443
H          2.65049        0.90510        1.98003
H          4.69450        1.21226        0.50855
H          5.61098        0.14527        1.51322
H          7.24852        2.35162        5.03475
H          6.76404        4.77315        4.70440
H          3.12762        5.63958        0.19215
H          4.04497        7.26359        1.76367
H          5.55917        6.49712        3.60209
H          2.89892        2.16311        0.42377
H          4.21216        2.62840       -0.65988
H          2.83096        4.50627       -1.55006
H          1.58033        4.18026       -0.33179
H          7.38794        0.22629        3.86724
H          5.83462       -0.37058        3.26048
H          6.27025        0.81646        6.06230
H          4.26375       -0.49533        6.68262
H          3.99044       -0.92518        4.98698
H          3.80161        1.78998        6.10025
H          2.65384        0.93258        5.32700
H          6.07602       -1.93279        5.54165
