92

C          2.62712      -10.74363        9.71507
C          4.06027      -10.23345        9.87844
C          4.23972       -8.77969        9.42924
C          5.67604       -8.26988        9.57712
C          5.87272       -6.82479        9.10712
C          7.32667       -6.35557        9.21021
C          7.56662       -4.93897        8.67512
C          9.05590       -4.57104        8.66941
C          9.35058       -3.25260        7.97310
O         10.78669       -3.13563        7.82597
C         11.24588       -2.18375        6.88218
C         12.60545       -2.70961        6.39033
C         12.37324       -3.92365        5.45809
N         13.51666       -4.78094        5.20384
C         14.12213       -5.23534        6.45088
C         14.57108       -4.05182        7.31829
N         13.42017       -3.11295        7.62343
C         13.90498       -1.90254        8.40376
C         14.32235       -2.23118        9.83385
C         14.81380       -0.95301       10.52743
S         15.09610       -1.16093       12.30010
C         13.43767       -0.89104       12.96087
S         12.11843       -0.58183       11.97759
N         13.38778       -0.95557       14.30908
C         12.11452       -0.69385       15.00809
C         11.81178        0.79514       15.21596
C         10.42695        1.01602       15.83224
C         10.12472        2.49614       16.07452
C         14.56701       -1.25564       15.14042
C         15.35371       -0.02822       15.61989
C         16.60249       -0.42664       16.41379
C         17.39337        0.78297       16.91548
C         15.25880       -6.24963        6.21877
C         16.29968       -5.86250        5.18378
F         16.91851       -4.63795        5.52929
H          2.53021      -11.78645       10.04618
H          2.30545      -10.69685        8.66391
H          1.92013      -10.14044       10.30358
H          4.74869      -10.87610        9.30385
H          4.36844      -10.32726       10.93349
H          3.55814       -8.13252       10.00854
H          3.92511       -8.68406        8.37499
H          6.35346       -8.92944        9.00599
H          5.98821       -8.35701       10.63255
H          5.22278       -6.15328        9.69404
H          5.53659       -6.73514        8.05922
H          7.96769       -7.05908        8.64978
H          7.65998       -6.41319       10.26081
H          6.99596       -4.20924        9.27301
H          7.17170       -4.87184        7.64648
H          9.61396       -5.36295        8.14145
H          9.44475       -4.53967        9.69968
H          8.96676       -2.38761        8.54137
H          8.89326       -3.23515        6.96678
H         11.30644       -1.17155        7.32078
H         10.57129       -2.12233        6.00880
H         13.18511       -1.92432        5.88330
H         11.99174       -3.53111        4.50489
H         11.57416       -4.54159        5.89778
H         14.20575       -4.31259        4.61172
H         13.32845       -5.77213        7.00392
H         15.34127       -3.46177        6.80456
H         14.96808       -4.38491        8.28506
H         12.72371       -3.60356        8.21696
H         13.07810       -1.18257        8.42782
H         14.72686       -1.47175        7.81405
H         15.11776       -2.98851        9.86866
H         13.44906       -2.60932       10.38754
H         14.07528       -0.14313       10.42015
H         15.78412       -0.62439       10.12615
H         12.16929       -1.21536       15.97480
H         11.31258       -1.15192       14.41119
H         11.86729        1.30550       14.24226
H         12.58070        1.24753       15.86174
H         10.35133        0.46322       16.78384
H          9.66267        0.58524       15.16420
H         10.84730        2.93925       16.77584
H          9.12119        2.63596       16.49800
H         10.17629        3.07116       15.13821
H         15.22854       -1.93039       14.57426
H         14.20678       -1.83317       16.00516
H         14.70548        0.60300       16.24697
H         15.64290        0.58114       14.74917
H         17.25057       -1.05661       15.78125
H         16.30706       -1.05583       17.27014
H         17.73322        1.41150       16.07950
H         18.28085        0.47222       17.48222
H         16.78016        1.41222       17.57658
H         14.80588       -7.19172        5.87382
H         15.75435       -6.46653        7.17748
H         15.86309       -5.73275        4.18164
H         17.09001       -6.62379        5.12443
