49

I          0.19013        1.05090       -0.35076
C          2.22201        0.20439       -0.05178
C          2.29858       -1.21633       -0.55739
C          2.36009       -1.22429       -2.07235
N          3.53081       -0.41466       -2.52063
C          3.85269        0.72849       -1.83891
N          4.79029        1.57471       -2.29262
N          3.21236        1.05148       -0.69064
C          3.45043        2.35368       -0.04228
C          4.56063        2.34414        0.99647
O          4.51779        1.27100        1.94144
C          5.65489        1.35607        1.06039
C          4.28516       -0.91036       -3.67043
C          5.65923       -1.65574       -3.36731
C          5.67720       -2.99899       -2.52992
C          4.97212       -4.33186       -3.02018
C          5.30344       -4.98741       -4.42177
C          6.76297       -5.47790       -4.78320
C          7.49372       -6.59461       -3.93193
C          6.79533       -7.99469       -3.75537
F          6.38447       -8.47740       -4.93865
F          7.68227       -8.84369       -3.21671
F          5.73724       -7.89838       -2.92768
F          8.67017       -6.80925       -4.56862
F          7.75464       -6.09628       -2.69495
F          6.67911       -5.91852       -6.06040
F          7.58002       -4.38908       -4.75748
F          4.46481       -6.04476       -4.53496
F          4.96418       -4.07466       -5.37329
F          5.20514       -5.23510       -2.04420
F          3.62591       -4.08646       -3.04624
F          6.97672       -3.27137       -2.29952
F          5.08603       -2.70266       -1.32642
F          6.28115       -1.84970       -4.54356
F          6.40978       -0.77639       -2.62820
F          3.48930       -1.72324       -4.38316
F          4.62260        0.13677       -4.49322
H          2.36060        0.27953        1.02999
H          1.42684       -1.78610       -0.21705
H          3.19557       -1.69642       -0.13635
H          1.44631       -0.80412       -2.51705
H          2.48909       -2.23963       -2.44761
H          5.25480        1.41224       -3.17647
H          5.20265        2.25110       -1.66446
H          2.50245        2.62540        0.44685
H          3.61785        3.12951       -0.80341
H          4.73425        3.33477        1.43476
H          5.72694        0.54771        0.32572
H          6.59495        1.63694        1.54251
