73

C          1.48074      -12.49947        5.81333
C          3.00450      -12.43662        5.67824
C          3.48148      -11.38754        4.66742
C          5.00422      -11.33145        4.50517
C          5.47219      -10.29424        3.47891
C          6.99235      -10.25179        3.28777
C          7.44590       -9.22683        2.24257
C          8.96396       -9.17536        2.03785
C          9.40244       -8.14166        0.99443
C         10.92104       -8.05235        0.81058
C         11.34632       -6.98763       -0.20688
C         12.85839       -6.83571       -0.35237
O         13.51705       -8.06171       -0.74120
C         13.41215       -8.38170       -2.12523
C         13.32485       -9.86500       -2.26326
C         12.31399      -10.65257       -2.76960
N         12.73077      -11.96223       -2.60297
C         13.93480      -11.99403       -2.02223
N         14.32154      -10.72947       -1.80479
C         15.59562      -10.33535       -1.14074
C         15.50258      -10.62741        0.35979
O         15.39250      -12.03959        0.53708
C         16.80476      -10.97646       -1.83768
C         16.92107      -10.62594       -3.32219
C         10.99465      -10.33168       -3.39645
C         10.68131      -11.21565       -4.62583
O         10.68820      -12.61302       -4.23304
C          9.37554      -10.83573       -5.30546
H          1.17102      -13.25880        6.54432
H          1.00442      -12.74913        4.85336
H          1.06849      -11.53420        6.14338
H          3.38911      -13.42713        5.38074
H          3.45396      -12.22272        6.66276
H          3.10890      -10.39330        4.97143
H          3.01857      -11.59330        3.68576
H          5.37528      -12.32915        4.21011
H          5.46915      -11.11493        5.48306
H          5.11542       -9.29422        3.78192
H          4.98989      -10.50250        2.50730
H          7.35121      -11.25525        2.99682
H          7.47692      -10.02759        4.25421
H          7.08733       -8.22504        2.53681
H          6.95452       -9.44894        1.27851
H          9.32940      -10.17563        1.74270
H          9.45399       -8.94906        3.00093
H          9.01398       -7.14978        1.28344
H          8.92744       -8.37606        0.02446
H         11.31702       -9.03479        0.50133
H         11.39390       -7.83038        1.78333
H         10.94938       -6.00247        0.09051
H         10.88665       -7.19981       -1.18913
H         13.31355       -6.58262        0.61593
H         13.11581       -6.03130       -1.06369
H         14.28388       -7.98119       -2.67969
H         12.51152       -7.94362       -2.58411
H         12.17144      -12.74237       -2.96948
H         14.49512      -12.88067       -1.75521
H         15.64874       -9.24393       -1.24656
H         14.63241      -10.09442        0.77636
H         16.41755      -10.22967        0.83279
H         15.28863      -12.23157        1.48101
H         16.79029      -12.06664       -1.69012
H         17.69503      -10.62013       -1.29777
H         16.07118      -11.00637       -3.90723
H         17.82990      -11.06548       -3.75111
H         16.97492       -9.53850       -3.47762
H         10.98602       -9.27396       -3.69413
H         10.18822      -10.45736       -2.65273
H         11.51286      -11.12672       -5.34361
H          9.77431      -12.89004       -4.05541
H          8.52422      -10.92709       -4.61249
H          9.19456      -11.48388       -6.17256
H          9.40366       -9.79738       -5.66246
