56

C          5.40421        1.72404       -0.11025
C          6.17892        0.42378       -0.09129
O          5.83828       -0.29897        1.10752
C          6.63986       -1.45553        1.31856
C          6.02260       -2.22326        2.48750
N          5.73678       -1.19929        3.57211
C          4.89845       -1.68035        4.74216
C          5.70092       -2.56061        5.71233
C          6.61798       -1.84111        6.72424
C          8.07097       -1.58205        6.31079
S          8.30462       -0.18828        5.15803
C          9.34506       -0.90230        3.83241
S          9.55478       -2.54374        3.65043
N          9.86386        0.04180        3.02091
C          9.68973        1.49389        3.21227
C          8.52362        2.07456        2.40707
C         10.69160       -0.34816        1.85926
C         12.17692       -0.45530        2.20234
C          3.67427       -2.38028        4.14524
O          4.05992       -3.44587        3.29277
C          4.71726       -2.96297        2.11074
C          5.00954       -4.14607        1.23662
C          4.59033       -4.25204       -0.02528
H          5.61225        2.26997       -1.03984
H          5.68801        2.36854        0.73304
H          4.32270        1.53888       -0.06247
H          7.26899        0.60607       -0.10507
H          5.93399       -0.20559       -0.96558
H          7.68333       -1.17423        1.54650
H          6.65156       -2.11174        0.43159
H          6.76016       -2.92754        2.89641
H          5.27753       -0.41024        3.08536
H          6.64466       -0.81298        3.95555
H          4.57193       -0.76447        5.26063
H          6.26164       -3.33193        5.16341
H          4.94640       -3.11423        6.28954
H          6.68410       -2.48515        7.61459
H          6.13976       -0.91340        7.07931
H          8.51933       -2.45435        5.80317
H          8.67681       -1.33806        7.19283
H         10.63449        1.96882        2.91274
H          9.56490        1.69487        4.28421
H          8.66821        1.92982        1.32798
H          8.44726        3.15432        2.59040
H          7.56798        1.61272        2.68919
H         10.52261        0.41073        1.08174
H         10.31345       -1.31070        1.49203
H         12.57614        0.49339        2.58632
H         12.74224       -0.71527        1.29784
H         12.34903       -1.23876        2.95028
H          3.04581       -1.65128        3.59505
H          3.06513       -2.81527        4.94756
H          4.04512       -2.25840        1.58171
H          5.59216       -4.94608        1.70314
H          3.98940       -3.47240       -0.49872
H          4.82331       -5.12830       -0.62955
