85

C          0.59737       -0.16610       -0.33794
C          2.12206       -0.22892       -0.21368
C          2.71145        0.90795        0.62873
C          4.23510        0.84083        0.77397
C          4.82259        1.96423        1.63414
C          6.34260        1.87714        1.80464
C          6.92626        2.98460        2.68737
C          8.44431        2.89202        2.87089
C          9.01850        3.99004        3.77125
C         10.53703        3.91007        3.95484
C         11.09903        5.01126        4.85888
C         12.61931        4.95334        5.03508
C         13.16789        6.06150        5.93865
C         14.69085        6.03486        6.09575
C         15.22644        7.14124        7.00927
C         16.75347        7.16018        7.11909
C         17.28509        8.25238        8.05236
C         18.81473        8.31513        8.09504
C         19.34659        9.38693        9.04963
C         20.88766        9.47953        9.00517
C         21.43585       10.52747        9.91100
N         22.03342       10.21908       11.11784
C         22.41863       11.33110       11.77881
N         22.06290       12.36022       10.98879
C         21.45423       11.92022        9.83992
C         20.92586       12.85992        8.79842
O         20.70700       12.12235        7.62588
C         19.95316       12.83510        6.62284
C         19.63330       11.86223        5.50729
C         23.10487       11.52373       13.08692
O         23.33564       12.67850       13.41038
C         23.44537       10.31124       13.90561
H          0.20626       -0.99478       -0.94427
H          0.27318        0.77309       -0.81081
H          0.11429       -0.22047        0.64926
H          2.57584       -0.20835       -1.21910
H          2.41594       -1.19594        0.22883
H          2.24933        0.89359        1.63189
H          2.42793        1.87753        0.18205
H          4.69966        0.86607       -0.22765
H          4.51544       -0.13426        1.21028
H          4.34413        1.94783        2.62940
H          4.55959        2.94083        1.19071
H          6.82478        1.90837        0.81159
H          6.60414        0.89409        2.23457
H          6.43815        2.95495        3.67765
H          6.67072        3.96875        2.25637
H          8.93551        2.93529        1.88272
H          8.70154        1.90371        3.29123
H          8.52943        3.94169        4.76031
H          8.75454        4.97814        3.35442
H         11.02772        3.96296        2.96690
H         10.80452        2.92281        4.37099
H         10.61492        4.95128        5.84968
H         10.81902        5.99728        4.44775
H         13.10399        5.01617        4.04479
H         12.90426        3.96960        5.44768
H         12.69659        5.98635        6.93449
H         12.86261        7.04340        5.53575
H         15.16122        6.12374        5.10054
H         15.00344        5.05189        6.48958
H         14.78733        7.02801        8.01607
H         14.87761        8.12103        6.63764
H         17.18864        7.29671        6.11340
H         17.10993        6.17604        7.47015
H         16.89344        8.08697        9.07119
H         16.89016        9.23277        7.73199
H         19.20155        8.51139        7.07993
H         19.21707        7.32942        8.38670
H         19.01655        9.17443       10.08021
H         18.92764       10.36868        8.77901
H         21.20657        9.70697        7.97958
H         21.33164        8.50777        9.27527
H         22.17448        9.27019       11.45663
H         22.25812       13.32407       11.26628
H         21.64849       13.68936        8.64475
H         19.98472       13.32003        9.16970
H         20.54946       13.68989        6.25631
H         19.03096       13.23512        7.08369
H         20.55209       11.45749        5.06317
H         19.06989       12.37328        4.71575
H         19.02217       11.02775        5.87728
H         24.00389        9.56758       13.31686
H         22.52372        9.82967       14.26998
H         24.04733       10.61681       14.76700
