107

C          0.17779       -0.17878       -1.53080
C          1.69975       -0.16583       -1.36630
C          2.18237        0.72821       -0.21830
C          3.70515        0.74333       -0.05103
C          4.19496        1.63930        1.09161
C          5.71778        1.63564        1.25867
C          6.22208        2.53408        2.39325
C          7.74594        2.51236        2.54584
C          8.28101        3.40597        3.67032
C          9.80863        3.36695        3.77566
C         10.39385        4.22321        4.90380
C         11.92478        4.17217        4.93268
C         12.55920        4.96738        6.07893
C         14.08748        4.87687        6.05370
C         14.75343        5.61053        7.22351
N         16.24162        5.52172        7.10598
C         16.85348        6.51388        6.40788
C         18.20321        6.46453        6.12926
C         18.92983        5.35601        6.56030
C         18.31010        4.33272        7.28496
C         16.93159        4.43197        7.57209
C         16.21821        3.43213        8.43524
C         16.34799        3.79932        9.93708
C         15.50466        2.87444       10.83344
P         13.84621        3.46638       11.29426
O         13.03717        2.48205       12.04424
O         14.10070        4.86798       12.04840
C         13.87121        4.98529       13.49324
C         12.46081        5.45805       13.78570
O         13.26453        3.97001        9.86881
C         11.88853        4.48871        9.86014
C         10.89651        3.41430        9.46055
C         19.12584        3.13103        7.69970
C         19.05438        2.03805        6.61249
C         19.78236        0.72675        6.93917
C         21.25155        0.54796        6.39154
C         22.41306        1.51628        6.84371
C         22.88446        1.62429        8.34695
C         23.41016        0.36462        9.14466
C         24.64704       -0.42690        8.57601
F         25.66060        0.41074        8.29749
F         25.04752       -1.30482        9.50906
F         24.31610       -1.10234        7.46283
F         23.77054        0.84561       10.36304
F         22.38562       -0.50737        9.31082
F         23.86858        2.55750        8.34857
F         21.83970        2.12047        9.07586
F         23.49615        1.19899        6.09977
F         22.02560        2.79001        6.49491
F         21.64031       -0.72288        6.64012
F         21.17126        0.71638        5.03636
F         19.77611        0.47644        8.28562
F         19.08602       -0.29552        6.34385
H         -0.13209       -0.82690       -2.36214
H         -0.21099        0.83021       -1.73436
H         -0.31985       -0.54588       -0.62080
H          2.16916        0.16895       -2.30701
H          2.06147       -1.19484       -1.19999
H          1.71435        0.39388        0.72463
H          1.82173        1.75903       -0.38332
H          4.17182        1.07279       -0.99630
H          4.06304       -0.28801        0.11645
H          3.72326        1.31725        2.03678
H          3.84835        2.67354        0.91933
H          6.18859        1.95037        0.31042
H          6.06152        0.60091        1.43468
H          5.75328        2.22260        3.34325
H          5.88588        3.57087        2.21615
H          8.20983        2.81722        1.59105
H          8.07810        1.47384        2.72163
H          7.83571        3.09508        4.63169
H          7.94964        4.44600        3.50450
H         10.24382        3.69238        2.81427
H         10.13505        2.32095        3.91308
H          9.99439        3.87986        5.87448
H         10.06058        5.26925        4.78946
H         12.31779        4.54232        3.96986
H         12.24929        3.11935        5.00643
H         12.18484        4.58058        7.03867
H         12.24552        6.02375        6.02396
H         14.47087        5.29299        5.10709
H         14.39098        3.81702        6.06867
H         14.44524        5.20890        8.19575
H         14.50719        6.67990        7.21349
H         16.21119        7.33062        6.08524
H         18.66935        7.27916        5.57809
H         19.99591        5.28160        6.33818
H         16.65497        2.43893        8.27043
H         15.15968        3.34756        8.16671
H         16.06023        4.84984       10.09334
H         17.40651        3.73142       10.22775
H         16.00361        2.72136       11.80205
H         15.38496        1.87233       10.39554
H         14.62218        5.71097       13.83117
H         14.07101        4.01519       13.96979
H         12.24303        6.39708       13.25880
H         12.34995        5.64045       14.86391
H         11.72410        4.69793       13.49489
H         11.90310        5.32403        9.14558
H         11.65675        4.90500       10.85118
H         11.12965        3.00362        8.46838
H          9.88630        3.84653        9.42117
H         10.89486        2.59480       10.18938
H         18.78279        2.72324        8.65735
H         20.16069        3.45463        7.85310
H         19.42758        2.41594        5.65111
H         18.00748        1.74464        6.44570
