42

N          1.38076        0.62753        0.42125
C          2.54111        0.10734        0.00665
N          3.17654       -0.82117        0.79466
C          4.61715       -0.73811        1.01215
C          5.50932       -1.71454        0.19279
F          5.17704       -2.99464        0.48608
F          5.27194       -1.49837       -1.14646
F          5.05019        0.52454        0.73553
F          4.86330       -0.98264        2.32861
C          2.40025       -1.77770        1.64862
C          1.20594       -2.45573        0.95271
C          1.51341       -3.13439       -0.36577
C          2.30326       -4.29337       -0.41711
C          2.56917       -4.92087       -1.63546
C          2.04516       -4.40249       -2.82388
C          1.24692       -3.25716       -2.78498
C          0.98429       -2.62992       -1.56309
N          3.05067        0.45036       -1.17779
C          2.59827        1.54010       -2.00200
C          2.62465        2.85382       -1.51597
C          2.19978        3.89269       -2.34720
C          1.77279        3.62308       -3.65122
C          1.76799        2.31010       -4.13091
C          2.17558        1.25904       -3.30640
H          1.09800        0.55732        1.39044
H          0.84157        1.22109       -0.20181
H          6.57712       -1.54221        0.39775
H          2.07481       -1.27501        2.57394
H          3.12354       -2.54246        1.94986
H          0.37951       -1.74604        0.81187
H          0.84222       -3.19618        1.68331
H          2.70186       -4.72355        0.50468
H          3.17570       -5.82702       -1.65601
H          2.24330       -4.90064       -3.77335
H          0.80877       -2.86382       -3.70356
H          0.32893       -1.75508       -1.53674
H          3.77443       -0.16693       -1.54686
H          2.99811        3.06255       -0.51244
H          2.22351        4.91846       -1.97889
H          1.45208        4.43992       -4.29782
H          1.44314        2.09932       -5.14987
H          2.16943        0.22970       -3.66828
