64

C          8.38998      -11.37738        4.04469
C          8.73223      -10.30077        5.07722
C          9.28122       -9.01181        4.45551
C          9.58990       -7.91901        5.48373
C         10.16633       -6.63936        4.86892
C         10.43767       -5.53823        5.89926
C         11.04490       -4.26933        5.29066
C         11.27310       -3.15604        6.32332
C         11.91810       -1.92725        5.69521
O         11.98476       -0.78606        6.59803
C         12.97459       -0.84679        7.59498
N         14.32650       -0.56605        7.08260
C         14.64987        0.59943        6.48031
N         13.66221        1.40374        6.06314
C         13.80316        2.83308        5.79596
C         12.55187        3.63851        6.18076
C         12.06626        3.56005        7.63160
C         13.12210        3.80682        8.75957
Br        14.10279        5.48358        8.52708
F         12.54510        3.78537        9.96907
F         14.02963        2.77786        8.73616
Br        10.58415        4.81992        7.85860
F         11.57256        2.28396        7.87852
N         15.93663        0.94461        6.31814
C         17.08621        0.29125        6.95191
C         18.26608        1.25924        7.03846
C         19.48428        0.62046        7.73895
C         19.18484        0.18326        9.09671
C         18.89425       -0.16500       10.21849
H          8.00882      -12.28877        4.52506
H          9.27348      -11.65935        3.45258
H          7.62034      -11.02634        3.34133
H          9.47033      -10.69854        5.79436
H          7.83423      -10.06195        5.67179
H          8.55496       -8.62429        3.71926
H         10.19548       -9.24505        3.88136
H         10.29801       -8.31272        6.23432
H          8.66829       -7.67292        6.04000
H          9.47057       -6.25645        4.10180
H         11.10205       -6.88027        4.33427
H         11.11403       -5.92685        6.68064
H          9.49651       -5.28035        6.41492
H         10.38228       -3.89269        4.49262
H         12.00013       -4.52274        4.79834
H         11.89991       -3.54821        7.14229
H         10.31388       -2.85695        6.77414
H         11.31386       -1.56188        4.85374
H         12.92828       -2.15038        5.30711
H         13.02833       -1.82745        8.08959
H         12.70525       -0.07836        8.33165
H         15.03185       -1.29200        7.13017
H         12.73478        0.96614        6.04032
H         13.98200        3.00902        4.72227
H         14.67977        3.20613        6.34379
H         11.69475        3.32662        5.56554
H         12.74711        4.68891        5.93273
H         16.13519        1.68432        5.65217
H         17.37671       -0.60936        6.38235
H         16.79554       -0.02214        7.96571
H         17.95588        2.15696        7.59426
H         18.56863        1.57657        6.02746
H         20.30547        1.35325        7.76019
H         19.85436       -0.23443        7.14826
H         18.68016       -0.47290       11.22080
