52

C          0.99823       -0.41596       -0.41285
C          2.50783       -0.17018       -0.38783
C          3.03167        0.51232       -1.65580
C          4.53904        0.77824       -1.62064
C          5.07737        1.44879       -2.88940
C          6.58093        1.73844       -2.80579
C          7.12800        2.38646       -4.06532
O          8.53407        2.65499       -3.86144
C          9.17707        3.19691       -4.98554
C         10.63535        3.39061       -4.64743
C         11.09138        2.99681       -3.39390
N         12.39823        3.14523       -3.08020
C         13.31780        3.65945       -3.92496
C         12.90799        4.07224       -5.18644
C         11.55464        3.95085       -5.55721
C         11.10090        4.30271       -6.96128
O         10.88612        3.42035       -7.76590
O         10.98296        5.61394       -7.12944
C         10.58504        6.06909       -8.48293
C         10.41482        7.57255       -8.43753
C         10.03275        8.13304       -9.81499
C          9.82236        9.64860       -9.78860
Br        14.20978        4.76170       -6.35395
H          0.65631       -0.90669        0.50836
H          0.71302       -1.05946       -1.25821
H          0.44260        0.52809       -0.51321
H          3.03679       -1.12799       -0.24814
H          2.76609        0.44901        0.48789
H          2.49525        1.46589       -1.80451
H          2.78886       -0.11277       -2.53296
H          5.07427       -0.17358       -1.45861
H          4.77516        1.41192       -0.74782
H          4.52943        2.38997       -3.06662
H          4.87058        0.80310       -3.75988
H          7.13101        0.80147       -2.62100
H          6.78224        2.40257       -1.94953
H          6.60827        3.33745       -4.28495
H          7.01056        1.72153       -4.94074
H          8.74063        4.17438       -5.28211
H          9.10194        2.53174       -5.86976
H         10.42851        2.56918       -2.64555
H         12.70946        2.84996       -2.15373
H         14.34428        3.72979       -3.57164
H          9.65874        5.54344       -8.75316
H         11.37742        5.75307       -9.17613
H         11.35237        8.03677       -8.09283
H          9.63833        7.83144       -7.70029
H          9.11436        7.63787      -10.17140
H         10.82044        7.88020      -10.54349
H          9.01141        9.92596       -9.09963
H          9.55795       10.02693      -10.78430
H         10.73249       10.17260       -9.46261
