61

O         -0.40237        1.52498        0.75304
C          0.92313        1.00255        0.70017
C          1.86174        2.18617        0.88267
O          3.19715        1.68746        0.81131
C          4.17594        2.68558        1.00713
C          5.53739        2.00022        0.90735
C          6.70318        2.87351        1.39340
N          7.93951        2.07915        1.52591
C          8.85341        1.97375        0.54252
N          9.90005        1.12639        0.71633
C         11.18994        1.17826        0.02072
C         11.38044        0.14563       -1.10167
C         10.87533        0.61250       -2.47156
O         10.17077        1.62807       -2.60780
N         11.27873       -0.16352       -3.50683
C         11.04513       -0.04116       -4.90359
C         11.56643       -1.06512       -5.71090
C         11.40544       -1.01762       -7.09316
C         10.72438        0.05199       -7.68197
C         10.20511        1.06570       -6.87420
C         10.35622        1.03322       -5.48620
N          8.74326        2.69002       -0.56972
C          7.64423        3.63256       -0.80067
C          7.02531        4.10894        0.51963
C          7.92253        5.13250        1.24184
C          7.24501        5.82110        2.44427
C          8.12095        6.84652        3.07484
C          8.69550        6.77060        4.28014
F          8.53228        5.72824        5.09977
F          9.47959        7.69377        4.80920
F          8.37036        7.94930        2.32008
H         -1.02781        0.79003        0.67235
H          1.13516        0.51584       -0.26890
H          1.10671        0.26475        1.50208
H          1.67712        2.66866        1.86090
H          1.68055        2.93825        0.09174
H          4.05601        3.16069        2.00481
H          4.06654        3.48934        0.25081
H          5.70715        1.65243       -0.12324
H          5.49667        1.09756        1.53580
H          6.46730        3.21466        2.41222
H          8.15606        1.66897        2.42668
H          9.83886        0.50165        1.51231
H         11.96171        1.01227        0.78378
H         11.33743        2.19565       -0.36575
H         10.88090       -0.79884       -0.83129
H         12.45438       -0.08571       -1.18016
H         11.85721       -0.96210       -3.25782
H         12.10058       -1.90098       -5.25175
H         11.81485       -1.81805       -7.70956
H         10.60130        0.09415       -8.76407
H          9.67449        1.90369       -7.32710
H          9.95323        1.82767       -4.86573
H          9.32876        2.37846       -1.38218
H          6.88563        3.14854       -1.43616
H          8.04578        4.48494       -1.36539
H          6.07420        4.60126        0.26641
H          8.21948        5.90484        0.51688
H          8.85622        4.65872        1.58479
H          6.96812        5.09441        3.22094
H          6.31067        6.30990        2.11837
