99

C          5.48896        1.57529       -3.06619
C          6.17856        0.24780       -2.74099
C          5.92320       -0.23372       -1.30820
C          6.61220       -1.56028       -0.97175
C          6.34991       -2.04049        0.45948
C          7.04008       -3.36621        0.79789
C          6.77393       -3.83624        2.23152
C          7.48689       -5.15761        2.54857
N          7.26718       -5.62668        3.92543
C          6.28395       -6.48231        4.27421
S          6.00861       -7.02807        5.83217
S          5.27958       -7.00491        2.86668
C          4.13413       -8.15636        3.65649
C          2.93088       -7.45726        4.29581
C          2.14503       -8.44199        5.19717
C          0.95935       -7.79082        5.82682
C          0.92456       -7.21235        7.08874
C         -0.24564       -6.59086        7.52718
C         -1.41794       -6.51215        6.74692
C         -1.34572       -7.09448        5.47149
N         -0.18095       -7.69419        5.09018
C         -2.44806       -7.15926        4.44941
C         -3.55252       -8.15077        4.79189
C         -3.27244       -9.36477        5.43400
C         -4.29885      -10.26730        5.72094
C         -5.61611       -9.96621        5.36677
C         -5.90142       -8.76126        4.71875
C         -4.87539       -7.85823        4.43424
Si        -2.97608       -5.66202        7.52586
C         -3.84870       -4.56719        6.26707
C         -4.10515       -7.00475        8.19539
C         -2.34265       -4.58419        8.93234
C          8.22185       -5.13066        4.93130
C          9.45894       -6.02768        5.04990
C         10.46574       -5.50457        6.07809
C         11.74315       -6.34855        6.13806
C         12.76367       -5.85403        7.16725
C         14.05405       -6.67943        7.18688
C         15.08035       -6.19886        8.21841
C         16.37090       -7.02219        8.21551
H          5.68370        1.88836       -4.10105
H          5.84075        2.38112       -2.40482
H          4.39816        1.50033       -2.94194
H          7.26534        0.34798       -2.90133
H          5.84015       -0.52751       -3.44915
H          4.83498       -0.33611       -1.14780
H          6.25959        0.54277       -0.59860
H          7.70030       -1.45544       -1.12750
H          6.27949       -2.33587       -1.68388
H          5.26185       -2.14613        0.61586
H          6.68301       -1.26501        1.17115
H          8.12786       -3.26126        0.64075
H          6.70586       -4.14415        0.08935
H          5.69139       -3.96443        2.39093
H          7.10589       -3.06395        2.94476
H          8.57361       -5.04499        2.41678
H          7.17606       -5.94602        1.84665
H          4.70970       -8.70686        4.41601
H          3.83006       -8.84826        2.85686
H          2.27696       -7.03528        3.51578
H          3.29049       -6.62617        4.91821
H          2.81588       -8.80463        5.98831
H          1.82345       -9.32183        4.61464
H          1.81494       -7.25203        7.71510
H         -0.24182       -6.14516        8.52300
H         -0.16639       -8.11275        4.15797
H         -2.01313       -7.41175        3.46642
H         -2.88118       -6.15710        4.33255
H         -2.25105       -9.61324        5.72963
H         -4.06866      -11.20538        6.22669
H         -6.41820      -10.66828        5.59462
H         -6.92647       -8.52181        4.43459
H         -5.10626       -6.91945        3.92679
H         -4.45727       -5.13548        5.55341
H         -3.14879       -3.92706        5.71231
H         -4.53355       -3.90222        6.81337
H         -4.54914       -7.61474        7.40028
H         -4.92334       -6.53331        8.75939
H         -3.56697       -7.67118        8.88335
H         -1.60417       -3.84329        8.59575
H         -1.90643       -5.16403        9.75719
H         -3.19556       -4.03044        9.35046
H          7.69463       -5.07085        5.89216
H          8.50856       -4.11143        4.63003
H          9.94815       -6.11030        4.06447
H          9.13186       -7.04214        5.32633
H          9.99191       -5.47825        7.07436
H         10.73120       -4.45945        5.83911
H         12.21265       -6.36454        5.13872
H         11.47677       -7.39633        6.36171
H         12.30587       -5.86336        8.17212
H         13.01043       -4.79797        6.95819
H         14.51272       -6.66078        6.18226
H         13.80800       -7.73791        7.38456
H         14.62561       -6.22728        9.22311
H         15.31906       -5.13909        8.02500
H         16.17001       -8.08097        8.43789
H         17.08438       -6.65588        8.96622
H         16.86926       -6.98018        7.23550
