76

S          1.75316        2.21606        0.58771
C          3.25918        1.54579        0.68745
N          3.72904        0.77795        1.73672
C          5.08363        0.82838        2.19359
C          5.72186       -0.35259        2.60036
C          7.04309       -0.30958        3.04391
C          7.73660        0.90526        3.08350
C          7.08969        2.08367        2.69890
C          5.76253        2.05340        2.26693
C          2.77530        0.11154        2.59251
C          2.66234        0.48704        3.93402
C          1.75713       -0.18153        4.75992
C          0.97035       -1.21731        4.24860
C          1.09246       -1.58922        2.90574
C          1.99700       -0.92883        2.07472
S          4.29567        1.88001       -0.70777
C          5.62952        0.61465       -0.80694
C          6.14242        0.64212       -2.24844
C          7.31277       -0.32083       -2.48392
C          7.80319       -0.30628       -3.93165
N          8.40472        0.99678       -4.30455
C          9.58229        0.83545       -4.93368
N         10.29517        1.83315       -5.46525
C         11.59016        1.66056       -6.13954
C         11.94694        2.97030       -6.84405
C         13.09854        2.95906       -7.85506
C         14.54906        2.83093       -7.26900
Br        14.97604        1.07140       -6.49712
F         15.44988        3.09988       -8.22323
F         14.68055        3.76058       -6.28740
Br        12.81710        1.62527       -9.26859
F         13.08185        4.20112       -8.45174
N          9.93442       -0.45566       -4.95557
C          8.95659       -1.31134       -4.24473
C          8.54015       -2.51900       -5.08574
C          7.55882       -3.46168       -4.36248
C          7.17029       -4.63740       -5.23086
C          6.08765       -4.53693       -6.11643
C          5.74459       -5.60436       -6.94851
C          6.48302       -6.78996       -6.90371
C          7.56194       -6.90214       -6.02292
C          7.90312       -5.83177       -5.19270
H          5.17438       -1.29505        2.56948
H          7.53335       -1.23044        3.36201
H          8.76871        0.93577        3.43381
H          7.61196        3.03948        2.75794
H          5.24777        2.97265        1.98873
H          3.27338        1.30293        4.32061
H          1.65945        0.11621        5.80427
H          0.26067       -1.73432        4.89485
H          0.48156       -2.39802        2.50369
H          2.09382       -1.20286        1.02370
H          5.20686       -0.36788       -0.55597
H          6.43478        0.84197       -0.09529
H          6.45445        1.67478       -2.48533
H          5.31596        0.39945       -2.93650
H          7.00222       -1.34922       -2.24087
H          8.15589       -0.07774       -1.81684
H          6.95543       -0.50401       -4.61110
H          7.83469        1.82500       -4.43730
H          9.96968        2.77936       -5.29414
H         11.49965        0.85572       -6.88522
H         12.36526        1.38015       -5.41126
H         12.18611        3.75254       -6.10590
H         11.07856        3.31356       -7.42604
H         10.86743       -0.77244       -5.19347
H          9.41328       -1.65037       -3.29868
H          9.44120       -3.09033       -5.36186
H          8.09361       -2.16375       -6.02850
H          6.64777       -2.91119       -4.07821
H          8.01713       -3.81989       -3.42660
H          5.49903       -3.61631       -6.14796
H          4.89530       -5.51290       -7.62648
H          6.21338       -7.62722       -7.54792
H          8.13461       -7.82904       -5.97605
H          8.74105       -5.93150       -4.49842
