42

O          2.67046        0.89404        1.58479
C          2.78492        0.01404        0.60204
O          2.65497        0.29657       -0.57234
C          3.12198       -1.45058        0.99608
C          2.06216       -2.50996        0.49544
C          1.44039       -2.31052       -0.95455
C          2.46799       -1.98325       -2.07543
O          3.50100       -2.57627       -2.17336
N          2.07560       -1.06567       -3.14810
C          2.77000       -1.05510       -4.35665
C          2.23216       -0.05991       -5.11096
N          1.22494        0.53305       -4.35536
C          1.14413       -0.07999       -3.17517
C          0.41820        1.70389       -4.75108
C          1.22956        2.99445       -4.56369
C          0.40794        4.29082       -4.49855
C          0.02460        5.01464       -5.84525
C         -0.92179        4.31996       -6.89862
C         -2.37323        3.90077       -6.46040
F         -2.99369        4.89237       -5.81408
F         -3.07533        3.56787       -7.55031
F         -2.31942        2.81352       -5.64712
F         -1.04211        5.18131       -7.92889
F         -0.29104        3.18731       -7.35490
F         -0.52617        6.20647       -5.52471
F          1.19909        5.23620       -6.50806
F         -0.73404        4.09853       -3.76254
F          1.17173        5.20547       -3.82874
F          0.87192       -3.48889       -1.32286
F          0.43949       -1.38753       -0.87022
F          2.63679       -3.72615        0.55064
F          1.01082       -2.47132        1.35386
F          4.33446       -1.74744        0.47104
F          3.20289       -1.56920        2.35675
H          2.81783        0.45894        2.45128
H          3.56864       -1.76096       -4.55078
H          2.46669        0.27100       -6.11593
H          0.47431        0.19011       -2.37068
H         -0.47681        1.70788       -4.11897
H          0.10210        1.54611       -5.78702
H          1.99951        3.10681       -5.33859
H          1.74417        2.95332       -3.59241
