67

C          2.00985        3.20354       -0.27198
C          3.50475        3.50513       -0.39463
C          4.31219        2.33016       -0.95858
C          5.81003        2.63689       -1.08293
C          6.66750        1.46655       -1.59323
C          6.38371        1.01130       -3.03317
C          6.75054        2.03098       -4.15676
C          8.20849        2.03228       -4.52236
C          8.76855        1.02740       -5.35908
C          7.91489       -0.00337       -6.05607
C          7.31238        0.50554       -7.39517
C          8.33705        0.86947       -8.48017
C          9.03857       -0.35022       -9.10663
S         10.72050        0.08161       -9.58465
O         10.69808        1.09017      -10.62005
O         11.47288        0.28088       -8.36302
O         11.24371       -1.31020      -10.22163
C         10.14410        1.05458       -5.56408
C         10.89899        2.07285       -4.97445
N         10.36073        3.04391       -4.25000
N          9.04400        3.00151       -4.04752
C          8.51778        4.15351       -3.25429
C          9.53739        5.21688       -2.83183
C          9.98472        6.16715       -3.96817
N         10.43587        7.41579       -3.35456
C         10.42948        8.58304       -4.24537
C         10.95601        9.80331       -3.51093
O         12.30475        9.51040       -3.12576
O          8.82215        5.96556       -1.86299
H          1.45996        4.06584        0.12770
H          1.82988        2.35379        0.40211
H          1.56996        2.95227       -1.24844
H          3.90977        3.77912        0.59364
H          3.65353        4.38932       -1.03788
H          3.89168        2.05340       -1.94125
H          4.17516        1.44748       -0.31001
H          6.19489        2.93638       -0.09520
H          5.93870        3.52852       -1.72275
H          6.49647        0.59727       -0.93814
H          7.73929        1.70365       -1.47744
H          5.31115        0.79676       -3.14510
H          6.90582        0.06140       -3.22202
H          6.40479        3.03079       -3.87303
H          6.19257        1.75847       -5.06252
H          7.09431       -0.33273       -5.40640
H          8.53662       -0.89093       -6.24215
H          6.68768        1.39093       -7.20090
H          6.62787       -0.27312       -7.76471
H          9.08798        1.55682       -8.06086
H          7.83425        1.43374       -9.27610
H          8.52373       -0.71191      -10.00571
H          9.15218       -1.19230       -8.40945
H         11.33003       -1.18358      -11.18705
H         10.63886        0.32053       -6.20215
H         11.98017        2.14251       -5.10152
H          8.05801        3.74868       -2.34455
H          7.72690        4.63172       -3.84930
H         10.42196        4.72990       -2.38005
H          9.10695        6.40833       -4.59117
H         10.73737        5.68403       -4.61620
H         11.38101        7.31640       -2.97547
H          9.39528        8.77641       -4.56992
H         11.04305        8.42004       -5.15339
H         10.32847       10.00578       -2.62496
H         10.91193       10.67820       -4.18267
H         12.64654       10.24556       -2.59554
H          9.19845        6.87673       -1.97930
