49

N         11.02090       -1.02460       -5.21311
C         10.70172       -0.07945       -4.13217
C          9.37475       -0.44515       -3.45766
C          9.39169       -1.83469       -2.81236
C          8.04715       -2.22169       -2.18799
C          8.11371       -3.63650       -1.60330
N          6.81933       -4.10111       -1.05306
C          6.06163       -5.00755       -1.69372
N          6.55766       -6.06345       -2.37005
C          7.86854       -6.68167       -2.23411
C          8.59059       -6.54578       -3.59921
O          7.92163       -6.15568       -4.56458
N          9.89919       -6.87559       -3.66593
C         10.67572       -7.37776       -2.52459
C         11.45899       -6.28652       -1.79135
C         10.58815       -6.74414       -4.96479
C         10.51554       -8.01543       -5.81029
N          4.71543       -4.90872       -1.63921
C          6.25662       -3.31178        0.04999
H         11.97715       -0.88306       -5.53827
H         10.41900       -0.85450       -6.02099
H         10.65244        0.97585       -4.46082
H         11.51373       -0.13794       -3.38963
H          8.56434       -0.39829       -4.20675
H          9.13833        0.32276       -2.70302
H         10.17843       -1.86488       -2.03815
H          9.68094       -2.57380       -3.57605
H          7.25484       -2.19213       -2.95485
H          7.77187       -1.48995       -1.41191
H          8.86609       -3.69300       -0.80036
H          8.41703       -4.31753       -2.40339
H          6.12861       -6.26264       -3.27700
H          7.72309       -7.74965       -1.99992
H          8.41616       -6.24107       -1.39551
H         11.36353       -8.14252       -2.91373
H         10.00672       -7.90995       -1.83463
H         12.14746       -5.76518       -2.46917
H         12.05367       -6.72626       -0.97964
H         10.78813       -5.53401       -1.35342
H         11.63154       -6.47208       -4.75124
H         10.12484       -5.90346       -5.49563
H         10.95810       -8.87750       -5.29222
H         11.06827       -7.87036       -6.74803
H          9.47484       -8.25491       -6.06328
H          4.25593       -4.01911       -1.48915
H          4.13866       -5.70811       -1.87216
H          7.07923       -3.01540        0.71214
H          5.55005       -3.92373        0.62180
H          5.75358       -2.39655       -0.29767
