65

O          0.70787        0.88214        1.00489
C          1.84924        0.35454        0.33529
C          2.57800       -0.49745        1.37660
C          4.04330       -0.91763        1.10480
C          4.24336       -1.81821       -0.13782
C          4.17287       -1.05408       -1.45846
C          4.69824       -1.86169       -2.64616
O          4.70852       -0.95398       -3.73880
C          5.20179       -1.38109       -4.96789
C          5.57815       -2.70857       -5.19261
C          6.05727       -3.12137       -6.44363
C          6.44394       -4.55789       -6.68445
C          6.15442       -2.16256       -7.45822
C          5.77577       -0.84232       -7.21903
C          5.28808       -0.40519       -5.98041
C          4.86735        1.05034       -5.82403
C          3.35053        1.21670       -5.61430
C          5.67068        1.83615       -4.76734
N          4.97258        0.16912       -1.36370
C          5.35248        0.73042       -0.21492
N          6.19257        1.78710       -0.23628
N          4.89314        0.29000        0.96196
C          4.53393       -1.68515        2.37832
C          6.05255       -1.73025        2.53172
O          6.63054       -0.64577        2.70572
C          6.81774       -2.99264        2.46423
C          8.21771       -2.92254        2.63068
C          8.99334       -4.07281        2.55822
C          8.38538       -5.31243        2.31957
C          6.99948       -5.39675        2.15508
C          6.21721       -4.24540        2.22832
H          0.15663        1.35706        0.36395
H          2.50203        1.17116       -0.02782
H          1.53971       -0.25106       -0.53547
H          1.98509       -1.40224        1.58198
H          2.57661        0.09280        2.30584
H          3.48419       -2.61167       -0.13609
H          5.22872       -2.30603       -0.06483
H          3.13471       -0.76888       -1.68926
H          4.02775       -2.71821       -2.83354
H          5.71524       -2.24236       -2.43933
H          5.49526       -3.44991       -4.39772
H          6.32643       -5.16738       -5.77949
H          7.48985       -4.63851       -7.01384
H          5.82280       -5.00526       -7.47413
H          6.52350       -2.44929       -8.44406
H          5.85358       -0.11153       -8.02690
H          5.10917        1.51694       -6.79275
H          3.02751        0.78185       -4.65817
H          2.78753        0.72281       -6.41696
H          3.07640        2.28148       -5.61428
H          5.28417        1.64825       -3.75290
H          5.57385        2.91725       -4.93902
H          6.73816        1.57832       -4.79093
H          5.23316        0.58967       -2.25583
H          6.69125        2.03983       -1.07942
H          6.45904        2.24415        0.62624
H          5.52859        0.42261        1.77048
H          4.06192       -2.67314        2.38162
H          4.16641       -1.14981        3.26646
H          8.67138       -1.95006        2.82047
H         10.07362       -4.01148        2.69173
H          8.99315       -6.21654        2.26780
H          6.52795       -6.36323        1.97704
H          5.13779       -4.33382        2.10675
