47

O          4.36078        3.35253        0.99622
C          4.13112        2.00190        0.57580
C          2.70850        1.66189        1.01406
C          2.59077        1.51815        2.55003
N          1.15815        1.58647        2.85335
C          0.48946        1.13072        3.91069
N         -0.87138        1.15864        4.03839
C         -1.20606        0.55498        5.24444
N         -0.12721        0.16426        5.86625
N          0.93210        0.53237        5.04161
C          2.28759        0.30811        5.46806
C          2.79786       -0.99169        5.44800
C          4.11367       -1.20256        5.86265
C          4.89657       -0.12467        6.28953
C          4.36609        1.16864        6.31562
C          3.04898        1.39262        5.91002
C         -2.60275        0.35078        5.71617
C         -3.32827       -0.77987        4.94948
C         -4.74137       -1.07489        5.47715
C         -5.74718        0.03541        5.15155
S         -7.37974       -0.40418        5.81053
O         -7.87646       -1.56708        5.11439
O         -7.33636       -0.33957        7.25247
Cl        -8.48046        1.23888        5.14744
O          1.79567        2.66581        0.55982
H          5.11661        3.71723        0.51194
H          4.85469        1.30553        1.03555
H          4.19873        1.90818       -0.51948
H          2.39566        0.71865        0.54015
H          3.13291        2.33284        3.05506
H          3.01037        0.55998        2.87935
H          0.66160        2.14712        2.15247
H         -1.51798        1.52304        3.34559
H          2.16942       -1.81878        5.11722
H          4.52675       -2.21108        5.85407
H          5.92235       -0.29704        6.61536
H          4.97258        2.00426        6.66460
H          2.61169        2.39109        5.94259
H         -3.15072        1.30311        5.63303
H         -2.54700        0.10452        6.78522
H         -2.72748       -1.69686        5.03821
H         -3.37557       -0.54149        3.87335
H         -4.70511       -1.23821        6.56512
H         -5.09180       -2.01468        5.02736
H         -5.88989        0.16976        4.07042
H         -5.50810        1.00152        5.61598
H          2.29490        3.50731        0.58581
