63

Br         2.72105       -1.99581       -0.23786
C          3.75643       -2.23170       -1.91215
C          2.86351       -2.16135       -3.13227
C          2.25633       -0.77495       -3.44554
C          1.02992       -0.44748       -2.62964
C         -0.10070       -1.24447       -2.74711
C         -1.23826       -0.97481       -1.97873
C         -2.45020       -1.84609       -1.96238
C         -2.09716       -3.27114       -1.42645
C         -2.59508       -4.38147       -2.35898
S         -1.85360       -5.98683       -1.98234
C         -0.27725       -5.88298       -2.83258
S          0.11668       -4.63179       -3.88618
N          0.53346       -6.93144       -2.58613
C          0.22173       -8.05111       -1.68505
C          1.34982       -8.21401       -0.65997
O          2.61279       -8.38032       -1.29006
C          2.91426       -7.26689       -2.12579
C          1.85692       -7.07314       -3.21193
N         -1.17170        0.10423       -1.17994
N         -0.14890        0.94587       -1.05022
C          0.94827        0.68507       -1.75473
C          2.05634        1.68200       -1.57309
C          2.02211        2.75074       -2.68696
C          3.19179        3.71781       -2.55427
C          3.34073        4.78259       -3.70060
C          2.12806        5.73562       -4.03750
C          1.51878        6.61479       -2.88661
F          2.47318        7.28061       -2.22352
F          0.65781        7.49280       -3.42201
F          0.83842        5.83383       -2.01333
F          2.55613        6.57281       -5.00949
F          1.11112        4.97128       -4.54118
F          4.41656        5.55291       -3.41990
F          3.58912        4.09105       -4.85390
F          3.14004        4.38080       -1.35742
F          4.37169        3.00892       -2.56412
Br         4.02332       -2.68002       -4.65004
H          4.22020       -3.21643       -1.81301
H          4.52487       -1.45126       -1.90016
H          2.09274       -2.94539       -3.11247
H          1.95033       -0.78024       -4.50244
H          3.03222       -0.00644       -3.34501
H         -0.11468       -2.13354       -3.38557
H         -2.81846       -1.92504       -2.99748
H         -3.25631       -1.38115       -1.37741
H         -2.50961       -3.39784       -0.41642
H         -1.00650       -3.36248       -1.33285
H         -2.35173       -4.15652       -3.40834
H         -3.67836       -4.54712       -2.26847
H          0.11890       -8.96672       -2.28983
H         -0.72660       -7.87360       -1.16520
H          1.17720       -9.11432       -0.05612
H          1.36656       -7.33266        0.01134
H          3.89025       -7.47419       -2.58355
H          2.99576       -6.34404       -1.51617
H          1.83092       -7.95216       -3.87661
H          2.05472       -6.17819       -3.81252
H         -1.97251        0.35150       -0.59414
H          3.02622        1.16870       -1.56160
H          1.92381        2.16346       -0.59660
H          1.08343        3.31626       -2.62984
H          2.07390        2.29779       -3.68731
