49

C          1.27504       -0.34346        2.13160
C          0.48780       -0.24711        0.84782
C         -0.26195       -1.34543        0.40346
C         -1.02127       -1.28960       -0.76653
C         -1.05114       -0.11599       -1.52115
C         -0.31169        0.98817       -1.09593
C          0.45802        0.93686        0.07464
C          1.26732        2.15250        0.48188
C          2.74539        1.97600        0.24330
N          3.56791        2.46480        1.17105
N          4.87043        2.30316        0.93725
C          5.47049        1.70523       -0.10587
C          4.61191        1.16807       -1.10117
C          3.24744        1.31734       -0.90554
C          5.16512        0.49672       -2.30160
C          5.05564        1.09846       -3.56050
C          5.64162        0.45640       -4.65357
N          6.28666       -0.71531       -4.56812
C          6.35678       -1.29727       -3.36297
C          5.82414       -0.73497       -2.20037
C          6.97057        1.72971       -0.16293
C          7.45606        2.45466       -1.41121
C          8.32247        1.81554       -2.30579
C          8.74104        2.46854       -3.46615
C          8.29346        3.76403       -3.74206
C          7.43426        4.41004       -2.84867
C          7.01481        3.75731       -1.68798
H          1.11000       -1.31234        2.61685
H          0.98697        0.43937        2.84926
H          2.35996       -0.24330        1.96869
H         -0.25492       -2.26198        0.99644
H         -1.59651       -2.16026       -1.08245
H         -1.65211       -0.05580       -2.42872
H         -0.34255        1.91474       -1.67424
H          1.12534        2.42397        1.53727
H          0.93724        3.02268       -0.10984
H          5.45838        2.70135        1.67426
H          2.54130        0.90903       -1.63064
H          4.56499        2.06470       -3.68163
H          5.59385        0.91026       -5.64689
H          6.86794       -2.26288       -3.32147
H          5.91033       -1.25577       -1.24547
H          7.35094        0.69804       -0.16413
H          7.36351        2.20569        0.75088
H          8.66222        0.79883       -2.10179
H          9.41520        1.96148       -4.15688
H          8.61932        4.27234       -4.64976
H          7.09378        5.42550       -3.05254
H          6.34551        4.27496       -0.99600
