58

C          0.77449        0.49757        1.23151
C          2.22493        0.42414        0.74802
C          2.82276       -0.97811        0.89639
C          4.28461       -1.06041        0.40358
C          4.90707       -2.40638        0.72215
C          5.87429       -2.33751        1.76894
C          6.43035       -3.43650        2.36322
C          5.89640       -4.70604        2.04282
C          4.91051       -4.80926        0.98869
C          4.55748       -3.66702        0.17752
C          3.92352       -3.88420       -1.23618
C          4.74435       -5.01698       -1.98351
C          4.22653       -5.34767       -3.39541
C          6.25042       -4.71680       -2.05447
C          2.38258       -4.21672       -1.18278
O          2.00105       -5.57505       -0.94405
C          3.99029       -2.61632       -2.11817
C          4.27309       -6.07859        0.84928
C          4.64560       -7.14843        1.61104
N          5.66948       -7.01755        2.51220
C          6.29589       -5.85564        2.76648
C          7.34524       -5.86974        3.83926
C          6.79988       -5.43913        5.22042
C          7.91912       -5.37297        6.25335
F          7.38359       -4.98714        7.48138
H          0.36824        1.51080        1.11568
H          0.69221        0.22668        2.29432
H          0.12669       -0.18619        0.66309
H          2.84210        1.14468        1.30972
H          2.28230        0.73463       -0.30879
H          2.20083       -1.69908        0.34246
H          2.77975       -1.29208        1.95279
H          4.86686       -0.29208        0.93181
H          4.33146       -0.79211       -0.65475
H          6.19733       -1.34520        2.08613
H          7.21739       -3.32126        3.10598
H          4.63107       -5.93938       -1.39795
H          4.48896       -4.57617       -4.13148
H          3.13771       -5.48984       -3.45039
H          4.68843       -6.28320       -3.73854
H          6.46375       -3.83346       -2.67255
H          6.77878       -5.56451       -2.51105
H          6.69599       -4.54439       -1.06543
H          1.93324       -3.87454       -2.12650
H          1.92664       -3.62949       -0.37471
H          1.92472       -6.02949       -1.79696
H          4.97734       -2.14098       -2.10654
H          3.23536       -1.87262       -1.83953
H          3.77171       -2.89632       -3.15454
H          3.42236       -6.19390        0.17622
H          4.17611       -8.12759        1.55591
H          5.95756       -7.83889        3.04312
H          8.17684       -5.21563        3.53992
H          7.76922       -6.88470        3.90870
H          6.03106       -6.14804        5.56367
H          6.31769       -4.45317        5.15118
H          8.68570       -4.63174        5.97155
H          8.40749       -6.35198        6.39137
