87

C          2.83562       -1.41016        1.45494
C          3.64376       -1.40771        0.15501
C          3.12073       -0.38393       -0.85665
C          3.91989       -0.38618       -2.16512
N          3.48680        0.64689       -3.11977
C          2.57272        0.42976       -4.09168
S          2.11940        1.58348       -5.22126
S          1.88692       -1.23098       -4.05513
C          0.71150       -1.18377       -5.43144
C         -0.63518       -0.54363       -5.07877
C         -1.42968       -0.20837       -6.34807
C         -2.74331        0.57391       -6.10212
C         -2.57961        2.11228       -6.17449
C         -1.57742        2.75870       -5.22177
C         -2.00631        2.66779       -3.75580
O         -1.02011        3.29719       -2.97163
Si        -0.65098        2.86715       -1.38572
C         -2.05116        3.41470       -0.25790
C         -0.42741        1.00119       -1.27130
C          0.94806        3.76940       -1.02788
N         -2.20083        2.45447       -7.56139
C         -2.65829        1.76688       -8.61507
N         -2.29832        2.14479       -9.86399
N         -3.43585        0.69741       -8.44411
C         -3.83358        0.17891       -7.11843
C         -5.30239        0.60863       -6.81164
C         -6.28182       -0.15836       -7.71060
O         -5.91628       -0.00592       -9.10063
C         -5.68490        0.40394       -5.32940
C         -7.11893        0.81292       -4.97288
C          4.12563        1.96283       -2.96449
C          5.44715        2.09245       -3.72940
C          6.08838        3.46927       -3.52499
C          7.41761        3.62641       -4.26745
H          3.22020       -2.15400        2.16548
H          1.77787       -1.64701        1.26604
H          2.87323       -0.42832        1.94995
H          3.61949       -2.41314       -0.29794
H          4.70408       -1.20032        0.37790
H          3.14828        0.62614       -0.41419
H          2.06516       -0.59590       -1.08236
H          3.86366       -1.36988       -2.65476
H          4.98665       -0.20599       -1.96147
H          0.60576       -2.23540       -5.73639
H          1.20427       -0.62465       -6.24123
H         -0.43407        0.37102       -4.50804
H         -1.21587       -1.21232       -4.42386
H         -1.66632       -1.14282       -6.88280
H         -0.76990        0.36001       -7.02449
H         -3.12043        0.31788       -5.10409
H         -3.56673        2.56966       -5.98367
H         -1.48931        3.82869       -5.47458
H         -0.57213        2.31990       -5.33037
H         -2.13876        1.60863       -3.46370
H         -2.98846        3.16370       -3.61860
H         -2.99026        2.90195       -0.51388
H         -2.22263        4.49729       -0.33676
H         -1.82779        3.18409        0.79373
H         -1.36783        0.45200       -1.42074
H         -0.05230        0.73252       -0.27312
H          0.30021        0.64359       -2.01207
H          0.82083        4.85530       -1.13501
H          1.73338        3.44853       -1.72521
H          1.29202        3.56853       -0.00344
H         -1.40092        3.06580       -7.69553
H         -1.96659        3.08437      -10.04070
H         -2.58489        1.59543      -10.66361
H         -4.06604        0.41244       -9.19982
H         -3.81775       -0.92046       -7.20784
H         -5.40060        1.68308       -7.04971
H         -7.30175        0.22347       -7.55853
H         -6.26763       -1.22933       -7.43497
H         -6.57266       -0.46736       -9.64450
H         -5.00055        0.99679       -4.70555
H         -5.51648       -0.65019       -5.04909
H         -7.33665        1.83964       -5.30250
H         -7.26231        0.77913       -3.88543
H         -7.87362        0.15037       -5.41609
H          4.28802        2.11630       -1.88611
H          3.41235        2.71996       -3.31630
H          5.25292        1.92187       -4.79978
H          6.14694        1.30446       -3.40327
H          6.24486        3.64499       -2.44709
H          5.38326        4.24821       -3.85992
H          8.15577        2.88467       -3.92865
H          7.85011        4.62268       -4.10388
H          7.28762        3.49344       -5.35134
