79

O          3.54044        1.13213       -0.67325
C          3.88623       -0.04763       -0.55143
N          3.15463       -1.11263       -0.97548
C          1.87772       -1.15245       -1.59507
C          1.36990       -2.42656       -1.89673
C          0.12556       -2.55921       -2.50691
C         -0.62425       -1.42236       -2.82173
C         -0.11458       -0.15791       -2.52073
C          1.13184       -0.00609       -1.90959
C          5.21233       -0.42777        0.12991
C          6.20200        0.76354        0.18568
C          6.37017        1.37791        1.53415
N          7.30553        1.00008        2.38574
N          7.12196        1.79868        3.46745
C          6.11239        2.66108        3.31618
N          5.60911        2.40342        2.08625
C          4.49896        3.15250        1.45592
C          4.98437        4.39189        0.69959
C          3.78745        5.21798        0.22279
C          4.20499        6.49390       -0.52624
N          3.06442        7.30807       -0.89682
C          2.38843        8.15894       -0.04475
C          1.28031        8.64369       -0.71301
C          1.27745        8.06038       -2.01133
C          2.38351        7.23650       -2.09584
C          5.62573        3.69515        4.26840
C          6.64491        4.06666        5.35666
C          6.28144        5.35141        6.12538
C          7.00723        6.68044        5.67543
C          6.81933        7.25550        4.21371
C          5.42662        7.76710        3.66164
C          4.59432        8.90246        4.38105
C          5.19356       10.34807        4.61539
C          5.65789       11.25947        3.40646
C          4.62418       11.60685        2.27047
F          3.45724       12.02024        2.79012
F          5.14058       12.58628        1.51340
F          4.40015       10.53446        1.48564
F          6.03700       12.42951        3.97496
F          6.74400       10.68947        2.82130
F          4.23081       11.02053        5.29123
F          6.27642       10.21775        5.42578
F          3.45980        9.03619        3.64357
F          4.24874        8.42935        5.60437
F          5.66643        8.15316        2.38406
F          4.58615        6.68454        3.60664
F          7.71013        8.25603        4.07390
F          7.18354        6.24487        3.34642
F          6.69984        7.64968        6.56164
F          8.34737        6.41895        5.76670
F          4.92891        5.56139        6.12420
F          6.66361        5.18701        7.42718
H          3.57304       -2.02801       -0.83199
H          1.95500       -3.31684       -1.65218
H         -0.25707       -3.55355       -2.73709
H         -1.59803       -1.52255       -3.30060
H         -0.69348        0.73339       -2.76444
H          1.52468        0.98022       -1.68243
H          5.68567       -1.26437       -0.40313
H          4.98909       -0.80072        1.14168
H          5.87194        1.52839       -0.53078
H          7.20134        0.42581       -0.11331
H          7.73805        1.69622        4.26986
H          3.79932        3.42339        2.25784
H          3.98932        2.45450        0.77533
H          5.60348        4.07712       -0.15598
H          5.63149        5.00754        1.34638
H          3.17081        5.50853        1.08879
H          3.14295        4.61107       -0.43172
H          4.75849        6.23888       -1.44206
H          4.87930        7.09879        0.09906
H          2.75934        8.35420        0.95615
H          0.56135        9.35400       -0.31763
H          0.55853        8.23924       -2.80428
H          2.75379        6.61990       -2.90874
H          4.69163        3.33774        4.73180
H          5.34603        4.57572        3.67912
H          7.65218        4.19818        4.93852
H          6.70205        3.27897        6.12150
