89

C          7.89552        2.50485        1.17719
C          6.77959        1.81810        0.38566
C          6.60013        2.41075       -1.01676
C          5.51455        1.73127       -1.86183
N          4.17379        1.77898       -1.24806
C          3.62394        0.63575       -0.77317
O          4.13852       -0.48315       -0.88667
C          2.25415        0.76739       -0.05099
N          1.86575       -0.51099        0.51142
C          1.86697       -1.68109       -0.14928
N          1.45304       -1.82238       -1.43012
C          2.24519       -2.69023       -2.33557
C          1.93071       -4.19827       -2.38325
C          0.46333       -4.58423       -2.38947
F         -0.25898       -3.87828       -3.30132
F          0.29698       -5.89339       -2.65833
F         -0.11295       -4.35103       -1.16301
C          0.40442       -0.97913       -2.05082
C         -0.94118       -0.94632       -1.33194
O         -0.88358       -0.01376       -0.26095
C         -2.13356        0.24616        0.38191
C         -2.56842       -0.86573        1.34469
O         -3.46489       -0.24335        2.25050
C         -4.05295       -1.00835        3.23803
C         -3.94486       -2.39922        3.34521
C         -4.59364       -3.05682        4.39359
C         -5.33954       -2.37144        5.36422
C         -5.43826       -0.97788        5.21847
C         -4.80943       -0.30083        4.17678
C         -6.02620       -3.13588        6.50630
C         -5.02727       -4.04814        7.29061
C         -3.79310       -3.53314        8.09261
C         -4.17697       -2.67469        9.31515
C         -3.08633       -4.80422        8.61396
C         -2.78701       -2.74755        7.22920
C         -6.80299       -2.19831        7.45022
C         -7.07212       -4.08951        5.86941
N          2.24619       -2.78318        0.52973
C          3.57613        3.09931       -1.06028
H          7.99641        2.07595        2.18295
H          7.70078        3.58118        1.29350
H          8.86647        2.39830        0.67254
H          5.83241        1.90049        0.94667
H          6.98589        0.73870        0.30119
H          7.54269        2.32200       -1.58068
H          6.40423        3.49384       -0.94180
H          5.74891        0.67112       -2.01196
H          5.44548        2.21189       -2.85048
H          1.47653        1.15416       -0.72732
H          2.31476        1.47900        0.78231
H          1.84538       -0.57913        1.52305
H          3.30325       -2.55886       -2.07343
H          2.11093       -2.26520       -3.33757
H          2.39805       -4.74006       -1.54896
H          2.38003       -4.60533       -3.30021
H          0.23518       -1.41719       -3.03979
H          0.76013        0.05085       -2.21970
H         -1.20704       -1.96137       -0.98766
H         -1.70585       -0.63196       -2.06855
H         -2.91892        0.44592       -0.36863
H         -1.98131        1.16227        0.96810
H         -1.68075       -1.26302        1.87523
H         -3.05745       -1.70246        0.81427
H         -3.37085       -2.98211        2.62528
H         -4.49176       -4.14145        4.45257
H         -6.01170       -0.39281        5.93589
H         -4.89373        0.78188        4.07925
H         -4.64251       -4.79136        6.57193
H         -5.64238       -4.63055        7.99840
H         -4.96373       -3.15323        9.91637
H         -4.52954       -1.67596        9.02939
H         -3.30099       -2.53412        9.96558
H         -3.74979       -5.39385        9.26386
H         -2.19266       -4.54130        9.19877
H         -2.76775       -5.45291        7.78411
H         -3.20252       -1.79981        6.86366
H         -2.46618       -3.32879        6.35239
H         -1.89059       -2.51400        7.82386
H         -6.18469       -1.39892        7.87405
H         -7.21470       -2.77477        8.28977
H         -7.64949       -1.72834        6.92918
H         -6.60047       -4.83784        5.21785
H         -7.79189       -3.52126        5.26407
H         -7.62913       -4.62762        6.65023
H          2.89665       -2.71636        1.30294
H          1.85446       -3.68830        0.30149
H          3.90317        3.75071       -1.87989
H          3.88435        3.56433       -0.11039
H          2.48191        3.05442       -1.09477
