71

C          0.86659       -0.86764        1.32442
C          2.36548       -0.72718        1.05019
C          2.94301       -1.88871        0.23498
C          4.44231       -1.75464       -0.04805
C          5.01998       -2.91652       -0.86202
C          6.51537       -2.77372       -1.16191
C          7.09159       -3.93721       -1.97503
C          8.57834       -3.77459       -2.30634
C          9.15807       -4.93287       -3.12474
C         10.63586       -4.74203       -3.48001
C         11.23733       -5.90221       -4.28034
C         12.71101       -5.67796       -4.63345
C         13.35786       -6.84530       -5.38818
C         14.83895       -6.58955       -5.69108
C         15.51909       -7.78496       -6.36992
N         16.97863       -7.62500       -6.51636
C         17.64619       -7.29303       -7.81845
C         19.02389       -6.76039       -7.35326
N         19.09257       -7.20487       -5.96068
C         17.88961       -7.65787       -5.53391
N         17.72169       -8.04179       -4.25720
C         16.70004       -8.92875       -3.69289
C         16.86518       -6.28775       -8.67132
C         17.59813       -5.92136       -9.96751
C         17.99757       -7.07407      -10.87340
Br        16.54079       -8.32557      -11.26888
Br        16.48033       -4.62472      -10.94505
H          0.48111       -0.02043        1.90816
H          0.64979       -1.78707        1.88858
H          0.29344       -0.91392        0.38631
H          2.91033       -0.65021        2.00635
H          2.55611        0.21913        0.51619
H          2.39688       -1.96769       -0.72182
H          2.75474       -2.83691        0.76913
H          4.98794       -1.67273        0.90865
H          4.62774       -0.80695       -0.58390
H          4.46613       -3.00501       -1.81330
H          4.84472       -3.86314       -0.32106
H          7.07154       -2.68129       -0.21230
H          6.68799       -1.82870       -1.70660
H          6.52003       -4.04286       -2.91391
H          6.94067       -4.88028       -1.42088
H          9.15209       -3.66857       -1.36866
H          8.72528       -2.82999       -2.85909
H          8.57267       -5.05323       -4.05300
H          9.03444       -5.87549       -2.56324
H         11.21796       -4.60296       -2.55177
H         10.75297       -3.80583       -4.05342
H         10.65599       -6.05220       -5.20636
H         11.13631       -6.83704       -3.70154
H         13.28015       -5.49109       -3.70546
H         12.80533       -4.75873       -5.23668
H         12.81089       -7.03203       -6.32757
H         13.25716       -7.76768       -4.78873
H         15.36766       -6.35781       -4.75088
H         14.94255       -5.69705       -6.32751
H         15.11904       -7.94460       -7.37915
H         15.31424       -8.71239       -5.81948
H         17.75365       -8.23749       -8.37822
H         19.07161       -5.66064       -7.40596
H         19.85275       -7.17734       -7.93746
H         19.95989       -7.46016       -5.50407
H         18.48732       -7.79474       -3.63964
H         16.62985       -9.86650       -4.25813
H         15.71655       -8.44481       -3.64345
H         17.00979       -9.16923       -2.67089
H         16.68882       -5.36741       -8.09604
H         15.88860       -6.70876       -8.94752
H         18.51387       -5.34948       -9.75401
H         18.78638       -7.68185      -10.40971
H         18.35526       -6.70948      -11.84054
