52

C          0.83019        0.15486       -0.26765
C          2.35462        0.10794       -0.13981
C          2.92293        1.22080        0.74793
C          4.45254        1.22043        0.82956
C          5.02052        2.32405        1.72762
C          6.55181        2.37120        1.73837
C          7.12470        3.47751        2.63026
C          8.65449        3.55941        2.57767
C          9.22119        4.70306        3.42663
C         10.76168        4.77511        3.47754
P         11.56312        4.96984        1.87226
N         10.77953        6.28192        1.04789
O         11.14948        7.44663        1.79396
O         11.39223        6.33130       -0.24194
C         13.37726        5.06581        1.96101
C         13.87321        3.75587        2.54166
C         13.99936        2.62082        1.72394
C         14.43790        1.41126        2.26621
C         14.75054        1.32608        3.62590
C         14.62683        2.45288        4.44406
C         14.18530        3.66300        3.90679
H          0.45387       -0.65862       -0.90245
H          0.49641        1.10420       -0.71249
H          0.34266        0.06214        0.71420
H          2.81015        0.17675       -1.14247
H          2.66271       -0.87120        0.26422
H          2.50006        1.12867        1.76383
H          2.58026        2.19954        0.36777
H          4.86856        1.32956       -0.18785
H          4.80119        0.23791        1.19315
H          4.64959        2.18697        2.75807
H          4.63068        3.30191        1.39430
H          6.91521        2.51287        0.70468
H          6.94788        1.39427        2.06615
H          6.80237        3.31873        3.67337
H          6.69994        4.44982        2.32523
H          8.95376        3.68375        1.52108
H          9.08990        2.60056        2.90898
H          8.88328        4.59447        4.46855
H          8.82040        5.66636        3.07620
H         11.20056        3.85377        3.89559
H         11.11848        5.61348        4.09614
H         11.24578        3.88479        1.03223
H         10.34290        7.99643        1.77713
H         10.64620        6.52246       -0.84249
H         13.63936        5.93539        2.57953
H         13.73496        5.24789        0.93697
H         13.77884        2.68647        0.65589
H         14.54690        0.53781        1.62327
H         15.10012        0.38336        4.04731
H         14.88456        2.39223        5.50168
H         14.10408        4.54437        4.54668
