53

C          1.42104        1.29863       -1.30560
O          2.74065        0.80333       -0.94495
C          3.09969       -0.36355       -1.50012
O          2.42708       -1.01969       -2.26955
C          4.49814       -0.77235       -1.00967
C          4.99843       -1.98179       -1.71558
N          5.58245       -1.93198       -2.97459
C          5.86156       -3.16674       -3.43454
N          5.45629       -4.00518       -2.46564
C          4.91082       -3.31533       -1.39351
C          4.30223       -4.01306       -0.21910
C          2.76633       -4.17746       -0.31426
C          2.21819       -5.03356       -1.46568
C          2.44393       -6.55823       -1.33488
S          3.70050       -7.16132       -2.48510
O          3.29072       -6.90556       -3.84664
O          5.02452       -6.71515       -2.05416
Cl         3.63563       -9.18462       -2.14302
C          6.51139       -3.52180       -4.73987
C          8.01358       -3.97046       -4.50206
C          8.81423       -2.92952       -3.70545
C          8.17387       -5.35721       -3.86505
C          5.66450       -4.66355       -5.36802
O          6.28145       -5.03536       -6.59021
C          6.46687       -2.30910       -5.69333
H          1.30768        2.23393       -0.75152
H          0.65202        0.57421       -1.01208
H          1.36750        1.47574       -2.38650
H          4.43674       -0.96327        0.07185
H          5.18255        0.08221       -1.11925
H          5.76767       -1.08659       -3.50614
H          5.50138       -5.03510       -2.49746
H          4.53005       -3.43680        0.68951
H          4.79466       -4.98767       -0.08832
H          2.31420       -3.18010       -0.41141
H          2.41066       -4.58610        0.64441
H          2.58130       -4.66711       -2.43840
H          1.13046       -4.88526       -1.50740
H          1.54824       -7.13331       -1.60268
H          2.77994       -6.87156       -0.33671
H          8.43150       -4.02773       -5.51894
H          8.46387       -2.85552       -2.66351
H          8.78236       -1.92591       -4.14942
H          9.87060       -3.22496       -3.66488
H          7.80277       -5.39633       -2.82916
H          9.24160       -5.60925       -3.81809
H          7.68362       -6.14859       -4.44418
H          4.63481       -4.29262       -5.52736
H          5.60306       -5.52506       -4.68258
H          5.73899       -5.71548       -7.01764
H          7.06407       -1.45992       -5.33445
H          5.43498       -1.97144       -5.86755
H          6.88175       -2.60902       -6.66179
