82

C          0.42384       -0.32167       -0.02548
C          1.95202       -0.41058       -0.04445
C          2.60634        0.13530        1.22947
C          4.13688        0.06603        1.21869
C          4.78039        0.61382        2.49640
C          6.31201        0.57659        2.48784
C          6.93586        1.12785        3.77372
C          8.46790        1.13430        3.77429
C          9.06391        1.69311        5.07017
C         10.59453        1.75692        5.07936
C         11.16091        2.31816        6.38761
C         12.68804        2.43854        6.40170
C         13.22572        3.02337        7.71269
C         14.75188        3.16879        7.72883
C         15.23988        3.79035        9.03925
N         16.70875        3.93494        9.09156
C         17.54650        3.11934        9.74100
N         18.80883        3.53346        9.49324
C         18.78100        4.65192        8.66301
C         17.44966        4.88901        8.41885
C         20.00840        5.38539        8.24614
C         20.15493        6.73679        8.96614
O         20.17054        6.51994       10.36490
Si        20.39931        7.77288       11.48768
C         22.06862        8.57684       11.19566
C         19.01170        9.02546       11.30296
C         20.32374        6.90410       13.14552
N         19.99895        2.95442        9.97210
C         20.22928        3.30066       11.38256
C         20.07172        1.52066        9.67145
H         -0.01617       -0.72368       -0.94854
H          0.08574        0.72046        0.07671
H          0.00108       -0.88838        0.81767
H          2.34290        0.13985       -0.91713
H          2.25927       -1.46036       -0.18867
H          2.22157       -0.42090        2.10277
H          2.29083        1.18324        1.37929
H          4.52099        0.62565        0.34749
H          4.45512       -0.98068        1.06823
H          4.40714        0.04339        3.36531
H          4.44492        1.65412        2.65442
H          6.68640        1.15285        1.62329
H          6.65395       -0.46135        2.32929
H          6.57407        0.53859        4.63484
H          6.57100        2.15685        3.94069
H          8.83123        1.72890        2.91763
H          8.84147        0.10828        3.61002
H          8.71957        1.08093        5.92226
H          8.66027        2.70588        5.24636
H         10.93947        2.37874        4.23461
H         11.00774        0.74859        4.90174
H         10.83727        1.68010        7.22856
H         10.71850        3.31215        6.57632
H         13.01356        3.07251        5.55877
H         13.13945        1.44622        6.22881
H         12.90832        2.38556        8.55568
H         12.76265        4.01014        7.88638
H         15.07723        3.79508        6.88227
H         15.22993        2.18445        7.59552
H         14.94806        3.17754        9.90309
H         14.81367        4.79235        9.18975
H         17.26077        2.27276       10.35295
H         16.97620        5.66070        7.82390
H         19.98336        5.55964        7.16052
H         20.87729        4.75168        8.46950
H         19.31680        7.40010        8.67924
H         21.08918        7.21164        8.61741
H         22.11697        9.09122       10.22567
H         22.88083        7.83787       11.23402
H         22.26599        9.33069       11.97146
H         19.04012        9.53410       10.32906
H         19.09479        9.80257       12.07656
H         18.02690        8.55011       11.41453
H         21.13268        6.16818       13.25329
H         19.36276        6.39042       13.28805
H         20.43214        7.63364       13.96067
H         20.19025        4.39003       11.48496
H         21.23573        2.95540       11.64718
H         19.50091        2.82622       12.06785
H         19.89810        1.36210        8.60043
H         19.36595        0.90111       10.25790
H         21.08963        1.18968        9.90897
