61

C          1.27905        0.97410        0.29063
C          2.80220        0.82183        0.28013
C          3.31056       -0.27643        1.22138
C          4.83534       -0.42593        1.22020
C          5.34880       -1.53206        2.14826
C          6.87423       -1.67390        2.13937
C          7.39705       -2.77705        3.06502
C          8.92382       -2.90829        3.04021
C          9.44468       -3.84927        4.12820
C         10.99568       -3.85709        4.19966
C         11.46851       -4.55649        5.41677
N         11.57525       -5.89429        5.54122
N         11.95538       -6.16694        6.77424
N         12.09172       -5.03623        7.42347
N         11.79464       -3.98997        6.60551
C         11.78681       -2.55739        7.02840
C         10.42090       -1.93397        6.89136
C         10.21896       -0.89445        5.97485
C          8.94901       -0.35050        5.79719
C          7.84576       -0.82889        6.52303
C          8.06558       -1.85557        7.45676
C          9.33500       -2.40099        7.64382
C          6.47449       -0.25146        6.30121
C         12.51336       -4.94808        8.84734
C         13.11021       -6.23879        9.30936
C         12.49571       -7.14413       10.08075
Br        10.70481       -6.99202       10.64513
Br        14.90544       -6.54137        8.76668
H          0.94954        1.76367       -0.39805
H          0.90967        1.23394        1.29390
H          0.78155        0.04101       -0.01241
H          3.27111        1.78170        0.55609
H          3.14392        0.60428       -0.74595
H          2.84872       -1.23921        0.94010
H          2.96357       -0.06542        2.24878
H          5.29659        0.53595        1.50722
H          5.18053       -0.62850        0.19122
H          4.89135       -2.49408        1.85898
H          5.00252       -1.33568        3.17935
H          7.33308       -0.71153        2.43077
H          7.21593       -1.86741        1.10805
H          6.93717       -3.74176        2.79204
H          7.07280       -2.56977        4.09963
H          9.37206       -1.91094        3.18770
H          9.25821       -3.25264        2.04747
H          9.09500       -4.87903        3.95984
H          9.03975       -3.53224        5.10010
H         11.38023       -2.82864        4.17645
H         11.41384       -4.38896        3.33331
H         12.52977       -2.04284        6.40438
H         12.15093       -2.53685        8.06262
H         11.05739       -0.50909        5.39051
H          8.80828        0.45469        5.07397
H          7.22750       -2.23368        8.04428
H          9.46846       -3.20425        8.37288
H          6.45358        0.81810        6.55662
H          5.71575       -0.75968        6.90790
H          6.18001       -0.33393        5.24463
H         11.62194       -4.70514        9.44609
H         13.25043       -4.13792        8.92229
H         12.98476       -8.04990       10.43327
