75

C         14.84069       -1.44872       11.61413
C         15.27491       -1.93515       10.22950
C         14.11189       -2.07940        9.24160
C         14.54232       -2.56862        7.85554
C         13.38584       -2.71929        6.86206
C         13.82965       -3.24027        5.49180
C         12.68933       -3.40718        4.48262
C         13.15635       -3.97837        3.14006
C         12.02802       -4.17393        2.12095
C         12.48211       -4.72950        0.75934
C         13.24340       -6.06464        0.81444
C         12.42280       -7.21031        1.42234
C         13.26841       -8.43745        1.73090
O         13.89521       -9.00010        0.53633
C         13.23367      -10.17646        0.18800
N         12.96645      -10.81339        1.53734
C         12.53125       -9.64884        2.40784
C         11.00062       -9.60835        2.48207
C         10.38721      -10.87493        3.09108
O         10.72294      -12.05385        2.32717
C         14.08506      -11.03604       -0.72696
C         13.38082      -12.37367       -1.00724
O         12.35226      -12.65847       -0.36399
N         13.91402      -13.20236       -1.93264
C         15.14234      -12.91680       -2.68789
C         14.90148      -12.47115       -4.13148
C         13.21836      -14.48075       -2.19247
C         11.99198      -14.34943       -3.09781
H         15.69765       -1.35247       12.29497
H         14.12589       -2.14581       12.07694
H         14.35057       -0.46532       11.55678
H         15.79187       -2.90549       10.32443
H         16.02032       -1.23777        9.81090
H         13.59453       -1.10870        9.14333
H         13.36397       -2.77682        9.65944
H         15.06223       -3.53815        7.95776
H         15.29012       -1.87091        7.43899
H         12.87887       -1.74636        6.73840
H         12.62710       -3.40184        7.28472
H         14.34178       -4.21092        5.62373
H         14.58885       -2.55797        5.07090
H         12.19515       -2.43422        4.31794
H         11.91432       -4.06842        4.91075
H         13.66671       -4.93941        3.33200
H         13.92710       -3.31719        2.70647
H         11.52575       -3.20883        1.94760
H         11.24994       -4.82467        2.55875
H         13.13379       -3.98937        0.26840
H         11.60266       -4.83739        0.10276
H         14.17067       -5.93820        1.39708
H         13.56285       -6.34628       -0.19964
H         11.58255       -7.46689        0.75638
H         11.97486       -6.87692        2.37337
H         14.11429       -8.12968        2.36460
H         12.23360      -10.00473       -0.25027
H         13.83475      -11.23369        1.88985
H         12.22242      -11.56235        1.49476
H         12.93977       -9.82210        3.41262
H         10.56339       -9.42925        1.48738
H         10.71182       -8.74874        3.10444
H          9.29724      -10.76366        3.17555
H         10.78097      -11.04902        4.10395
H         10.01932      -12.25325        1.68975
H         15.07459      -11.18976       -0.26491
H         14.26004      -10.46368       -1.64888
H         15.75248      -13.83276       -2.67067
H         15.72198      -12.15801       -2.14851
H         14.41793      -13.25808       -4.72363
H         15.85965      -12.23437       -4.61271
H         14.26602      -11.57559       -4.17242
H         12.92335      -14.89838       -1.22044
H         13.96168      -15.15562       -2.63834
H         11.23328      -13.70404       -2.63872
H         11.54354      -15.34013       -3.25180
H         12.25170      -13.94064       -4.08220
