51

C          2.47377       -7.23979       -2.38533
C          2.93507       -6.03369       -3.20867
C          4.04065       -6.38729       -4.20938
C          4.51093       -5.22021       -5.08656
N          5.14276       -4.12354       -4.33877
C          6.44337       -4.15834       -3.97313
O          7.21799       -5.06939       -4.25711
C          6.92410       -2.93837       -3.12733
C          8.40825       -2.81805       -3.23671
C          9.24468       -3.85529       -2.75841
N         10.55609       -3.87148       -2.91477
N         11.12856       -2.84491       -3.55361
C         10.44640       -1.77234       -4.02695
C          9.04854       -1.76802       -3.87100
C         11.15217       -0.60422       -4.63709
C         11.28113        0.57225       -3.62131
N          9.97618        1.15983       -3.33648
C         12.59964       -3.04081       -3.69934
C         13.45199       -2.11611       -2.82485
O         12.85304       -2.02201       -1.55372
C         13.66889       -1.31138       -0.60401
C         12.91127       -1.21375        0.70410
H          1.68127       -6.96330       -1.67754
H          3.30431       -7.66895       -1.80593
H          2.07822       -8.03560       -3.03293
H          3.29060       -5.24373       -2.52452
H          2.07414       -5.60525       -3.75052
H          3.68346       -7.17860       -4.88871
H          4.91119       -6.80982       -3.68261
H          3.66765       -4.78361       -5.64089
H          5.24890       -5.57502       -5.81769
H          4.56166       -3.35787       -4.01596
H          6.63723       -3.14238       -2.08227
H          6.42515       -2.01007       -3.43467
H          8.84460       -4.72153       -2.23312
H          8.49814       -0.91631       -4.26593
H         10.56636       -0.25687       -5.50075
H         12.14402       -0.87648       -5.01486
H         12.01612        1.28121       -4.04146
H         11.70021        0.18812       -2.68094
H          9.72804        1.87281       -4.02249
H          9.96249        1.60638       -2.42148
H         12.86771       -2.93014       -4.75863
H         12.74355       -4.08373       -3.40332
H         13.57585       -1.11421       -3.28037
H         14.46155       -2.56871       -2.77551
H         13.90578       -0.30650       -1.00473
H         14.62452       -1.85103       -0.47310
H         11.97291       -0.65679        0.57839
H         13.52146       -0.68956        1.45138
H         12.67478       -2.21169        1.09494
