87

C         10.39054       12.47109       -0.30558
C          9.76939       11.12983        0.09199
C         10.09874       10.71053        1.52904
C          9.47893        9.37163        1.94273
C          9.77794        8.98389        3.39427
C          9.17019        7.64325        3.82220
C          9.43876        7.31886        5.29643
C          8.83186        6.00156        5.80527
C          9.35033        4.73712        5.11501
O         10.79088        4.67317        5.01937
C         11.44316        4.54751        6.27349
C         12.91329        4.48688        5.94639
N         13.56043        5.63185        6.15200
N         14.85642        5.68715        5.84798
C         15.55467        4.65365        5.34295
C         14.90300        3.44938        5.10862
C         13.53986        3.34142        5.37478
C         12.78991        2.08101        5.05734
C         13.22492        0.87965        5.92676
O         12.95027        1.06286        7.34048
C         11.65824        1.11223        7.77907
O         10.68312        1.10972        7.05551
C         11.61961        1.21563        9.28646
S         11.79521        2.96365        9.81623
C         12.65517       -0.42967        5.36576
O         13.01227       -1.55980        6.18138
C         14.30689       -1.98340        6.07956
O         15.12646       -1.47761        5.33834
C         14.57751       -3.12603        7.02761
S         15.10633       -2.47690        8.65880
C         15.44413        7.02754        5.90299
C         15.78304        7.47216        4.44263
O         15.87873        6.60016        3.57556
N         15.97497        8.79290        4.22701
C         16.36242        9.23056        2.86861
C         17.83776        9.63394        2.74316
C         18.83357        8.52855        3.11541
C         20.29059        8.94390        2.89694
C         15.95760        9.82625        5.25832
H         10.13166       12.74530       -1.33734
H         11.48861       12.44075       -0.23698
H         10.04164       13.28308        0.34979
H         10.10908       10.34390       -0.60376
H          8.67403       11.18242       -0.02599
H          9.75783       11.49933        2.22299
H         11.19630       10.65839        1.64995
H          9.83926        8.57619        1.26678
H          8.38557        9.41722        1.79770
H          9.40875        9.78011        4.06453
H         10.87256        8.94800        3.54441
H          9.57441        6.84523        3.17694
H          8.08097        7.66057        3.64312
H          9.04608        8.13776        5.92064
H         10.52937        7.30912        5.46537
H          7.73780        6.00989        5.66610
H          8.98515        5.92422        6.89388
H          9.02087        4.69268        4.06863
H          8.97722        3.83365        5.63010
H         11.11736        3.64174        6.81508
H         11.27431        5.41437        6.93320
H         16.60983        4.81768        5.14445
H         15.47077        2.61849        4.68903
H         13.01955        1.81364        4.01283
H         11.70874        2.23468        5.12030
H         14.32003        0.79727        5.91678
H         12.39143        0.59973        9.76054
H         10.62744        0.90252        9.62925
H         13.13921        3.02677        9.67053
H         13.05421       -0.56461        4.34959
H         11.56122       -0.42394        5.34643
H         15.35040       -3.77921        6.60998
H         13.66557       -3.70095        7.22490
H         16.30779       -2.01167        8.24146
H         16.36610        7.00167        6.50144
H         14.70327        7.65748        6.40208
H         15.71039       10.07763        2.60543
H         16.13213        8.39786        2.19453
H         18.04092       10.53941        3.33956
H         17.99173        9.93343        1.69383
H         18.60760        7.62415        2.52788
H         18.69188        8.24512        4.17312
H         20.48094        9.18838        1.84201
H         20.98267        8.14000        3.18038
H         20.55003        9.83124        3.49304
H         15.40869        9.50623        6.14846
H         15.45602       10.71819        4.85971
H         16.97692       10.10883        5.56218
