67

C         12.15657       -8.74820       -1.37326
C         11.64241       -8.36250        0.01530
C         11.48319       -6.85039        0.19883
C         10.97989       -6.44343        1.58703
C         10.83615       -4.92856        1.75883
C         10.39890       -4.49858        3.16258
C         10.29485       -2.97833        3.32195
C         10.03735       -2.52131        4.76111
C         10.00849       -0.99547        4.90566
C          9.92846       -0.49558        6.34605
O         10.97991       -0.99683        7.20514
C         12.29202       -0.59117        6.84842
C         13.19342       -1.42185        7.76562
N         12.84572       -1.13166        9.17030
C         13.75706       -1.07057       10.14498
N         13.39742       -1.18104       11.43975
N         15.03074       -0.85550        9.81211
C         15.37447       -0.50226        8.42186
O         14.58026       -1.29893        7.53021
C         15.17153        1.02412        8.24755
C         15.54891        1.63385        6.90489
F         14.68322        1.20499        5.88910
C         16.82902       -0.93181        8.17397
C         17.10911       -2.43426        8.40952
C         18.35532       -2.70862        9.25712
C         18.22194       -2.29311       10.71259
O         17.22961       -1.77767       11.20807
O         19.28139       -2.52339       11.50900
H         12.26176       -9.83666       -1.47769
H         13.14058       -8.29793       -1.57210
H         11.47110       -8.40284       -2.16116
H         12.33093       -8.75045        0.78520
H         10.67291       -8.85457        0.20053
H         10.79093       -6.46238       -0.56886
H         12.45312       -6.35814        0.00600
H         11.67338       -6.83320        2.35353
H         10.00830       -6.92978        1.78260
H         10.11581       -4.54370        1.01623
H         11.80058       -4.44547        1.52119
H         11.12181       -4.89155        3.90022
H          9.42996       -4.96520        3.41044
H          9.50035       -2.59137        2.66120
H         11.23318       -2.51665        2.96570
H         10.82292       -2.93757        5.41447
H          9.08676       -2.94458        5.12847
H          9.13529       -0.58006        4.37600
H         10.88607       -0.55609        4.40194
H          9.00544       -0.84649        6.82888
H          9.93436        0.60915        6.37500
H         12.43927        0.49412        6.99096
H         12.55352       -0.84140        5.80733
H         12.95413       -2.48324        7.57604
H         11.84634       -1.10325        9.36237
H         12.51914       -1.60991       11.70246
H         14.07490       -0.99631       12.17014
H         15.80569       -1.17905       10.42853
H         15.78588        1.52269        9.01400
H         14.12670        1.28100        8.47763
H         16.57292        1.37760        6.59422
H         15.46875        2.72959        6.96538
H         17.46412       -0.30760        8.82131
H         17.07735       -0.66308        7.13998
H         17.23088       -2.94101        7.44428
H         16.24505       -2.91573        8.88812
H         19.24318       -2.20570        8.83669
H         18.59061       -3.78635        9.24594
H         20.00710       -2.94378       11.01205
