101

C         -0.47077       -0.13410       -0.91299
C          1.02043       -0.29659       -0.60776
C          1.74091       -1.24154       -1.57634
C          3.23131       -1.41590       -1.26871
C          3.95591       -2.36089       -2.23307
C          5.43760       -2.55556       -1.89683
C          6.17919       -3.47763       -2.86999
C          7.64562       -3.70405       -2.49008
C          8.41557       -4.59009       -3.47444
C          9.86613       -4.83642       -3.04900
C         10.67250       -5.68364       -4.03883
C         12.10874       -5.93240       -3.56892
C         12.95390       -6.74409       -4.55680
C         14.38205       -6.96922       -4.03761
C         15.21820       -7.72699       -5.06330
N         16.63650       -8.11136       -4.63444
C         17.36101       -7.03912       -3.83339
C         18.84475       -7.35587       -3.74938
C         19.12953       -8.74225       -3.14015
C         18.30009       -9.79889       -3.89868
C         16.78821       -9.52303       -4.02450
C         15.90704       -9.71283       -2.77974
C         16.13283      -11.05805       -2.07479
C         15.13502      -11.24215       -0.92316
S         15.61499      -12.56283        0.22129
C         16.77265      -11.74240        1.26949
S         17.05966      -10.11234        1.29090
N         17.40551      -12.63359        2.13289
C         17.39951      -14.03721        2.09575
C         18.13752      -14.43615        3.17095
N         18.59840      -13.33866        3.89363
C         18.15976      -12.28590        3.26573
C         18.95452       -8.80140       -1.61338
C         19.99584       -7.97555       -0.84058
O         20.65965       -7.08609       -1.37869
N         20.09787       -8.30085        0.47355
C         20.90722       -7.53511        1.41918
C         20.11982       -6.41394        2.10961
C         20.95183       -5.65917        3.15195
C         20.18473       -4.50904        3.80971
H         -0.95748        0.54556       -0.20000
H         -0.99623       -1.09965       -0.86287
H         -0.62972        0.27455       -1.92227
H          1.14674       -0.67064        0.42242
H          1.51212        0.69069       -0.63162
H          1.62115       -0.86628       -2.60820
H          1.24618       -2.22891       -1.55658
H          3.34780       -1.79070       -0.23632
H          3.72591       -0.42864       -1.28703
H          3.86146       -1.97445       -3.26328
H          3.45007       -3.34261       -2.23224
H          5.52668       -2.96024       -0.87300
H          5.93946       -1.57212       -1.87478
H          6.12445       -3.05461       -3.88866
H          5.66067       -4.45146       -2.91981
H          7.69324       -4.15350       -1.48233
H          8.15562       -2.72805       -2.40706
H          8.39974       -4.12537       -4.47578
H          7.89612       -5.55843       -3.58230
H          9.87573       -5.32563       -2.05898
H         10.37340       -3.86555       -2.90903
H         10.68877       -5.18317       -5.02256
H         10.16424       -6.65068       -4.19794
H         12.08845       -6.45277       -2.59526
H         12.60327       -4.96311       -3.38320
H         12.98876       -6.22241       -5.52850
H         12.47102       -7.71793       -4.74774
H         14.33537       -7.51232       -3.08320
H         14.83937       -5.99156       -3.82412
H         15.34449       -7.11344       -5.96706
H         14.73145       -8.66500       -5.36679
H         17.17000       -8.17902       -5.51221
H         16.88137       -6.98752       -2.84919
H         17.17891       -6.08779       -4.34960
H         19.34887       -6.58482       -3.15179
H         19.28375       -7.30193       -4.76097
H         20.18839       -8.96284       -3.34348
H         18.43147      -10.79708       -3.45951
H         18.70261       -9.87902       -4.92354
H         16.39427      -10.18381       -4.81361
H         14.85144       -9.64896       -3.08534
H         16.07160       -8.91163       -2.04508
H         17.14941      -11.09402       -1.66357
H         16.04283      -11.89528       -2.78448
H         14.13700      -11.53566       -1.27906
H         15.04212      -10.32542       -0.32168
H         16.90811      -14.59324        1.30705
H         18.37623      -15.45054        3.47516
H         18.30224      -11.24673        3.54202
H         19.00749       -9.84742       -1.27670
H         17.96281       -8.44217       -1.29414
H         19.47135       -9.01296        0.84499
H         21.75274       -7.11745        0.85592
H         21.31274       -8.23805        2.16198
H         19.22397       -6.84221        2.59167
H         19.75805       -5.71359        1.33868
H         21.86600       -5.26818        2.67535
H         21.29174       -6.36718        3.92630
H         19.88857       -3.75166        3.06925
H         20.79502       -4.00564        4.57149
H         19.26892       -4.86752        4.30257
