68

C          2.77776        0.94053       -1.57739
C          3.45636       -0.23155       -2.29111
C          4.22485       -1.15639       -1.33996
C          4.92868       -2.32036       -2.04519
C          5.69036       -3.24400       -1.08855
C          6.46072       -4.36079       -1.80059
C          7.24637       -5.25520       -0.83419
C          8.05637       -6.35467       -1.50400
O          9.02415       -5.79876       -2.47543
C         10.17877       -5.35781       -2.00224
O         10.54998       -5.43240       -0.83491
C         11.00904       -4.66668       -3.09394
N         12.38348       -5.16542       -3.24766
C         13.35643       -4.81405       -2.34777
N         14.64711       -4.93785       -2.68650
C         15.76549       -5.09892       -1.73631
C         15.72429       -6.42337       -0.96343
C         15.76589       -7.67213       -1.85232
C         15.74206       -8.97154       -1.04427
N         12.99596       -4.30938       -1.16704
C         12.53438       -6.38069       -4.03803
O         12.25659       -7.46704       -3.19309
C         12.17425       -8.73348       -3.88014
C         11.90909       -9.81687       -2.84547
C         10.64055       -9.61047       -2.00113
C          9.34069       -9.56043       -2.81031
H          2.23501        1.58316       -2.28384
H          3.51283        1.56992       -1.05373
H          2.05412        0.58694       -0.82799
H          4.14841        0.15510       -3.05877
H          2.69976       -0.82022       -2.83683
H          3.53005       -1.55496       -0.57990
H          4.97195       -0.56404       -0.78213
H          5.63029       -1.91744       -2.79758
H          4.18703       -2.91030       -2.61145
H          4.98377       -3.68759       -0.36584
H          6.39623       -2.64333       -0.48800
H          7.15223       -3.90899       -2.53183
H          5.76153       -4.97954       -2.38896
H          6.55357       -5.76122       -0.14078
H          7.91077       -4.64593       -0.20053
H          7.43318       -7.00491       -2.12935
H          8.61655       -6.95902       -0.78009
H         11.04757       -3.59476       -2.84837
H         10.50818       -4.77170       -4.06248
H         14.83829       -5.14160       -3.66056
H         15.79467       -4.23642       -1.05307
H         16.67830       -5.02919       -2.34274
H         14.82583       -6.45279       -0.32477
H         16.58449       -6.42186       -0.27454
H         16.67091       -7.64147       -2.48239
H         14.90280       -7.66565       -2.53749
H         16.59922       -9.03442       -0.35884
H         15.78012       -9.84934       -1.70250
H         14.82640       -9.04690       -0.43999
H         12.07297       -4.60574       -0.78518
H         13.69193       -3.89600       -0.55782
H         13.55360       -6.45057       -4.46274
H         11.82606       -6.32242       -4.88375
H         13.12446       -8.92872       -4.41078
H         11.36941       -8.68199       -4.63649
H         12.78578       -9.89015       -2.18290
H         11.84753      -10.77472       -3.38773
H         10.74803       -8.68964       -1.40641
H         10.58458      -10.43450       -1.27438
H          9.28937       -8.67449       -3.46010
H          8.46706       -9.52730       -2.14579
H          9.22963      -10.44834       -3.45012
