34

C          2.49058        1.20785        0.90474
C          3.20703        0.54629        0.19179
C          4.08956       -0.25110       -0.63057
N          4.35088        0.39022       -2.00509
C          3.20486        0.26176       -2.93488
C          2.11454        1.12436       -2.91795
C          1.08111        0.92024       -3.83486
C          1.16049       -0.13384       -4.74768
C          2.25384       -1.00385       -4.76044
C          3.28917       -0.81616       -3.83896
O          4.40332       -1.58963       -3.70744
C          4.63607       -2.64533       -4.66233
C          4.92908        1.77825       -1.88130
C          5.52630        2.18833       -3.22332
C          6.25335        3.54448       -3.09571
F          7.19134        3.53403       -2.12561
F          6.86327        3.83952       -4.26722
F          5.36212        4.52482       -2.81718
O          6.41319        1.14422       -3.58556
H          1.85606        1.78340        1.54940
H          3.67291       -1.24631       -0.83872
H          5.07499       -0.37502       -0.15549
H          5.09267       -0.18749       -2.45289
H          2.05908        1.94281       -2.20135
H          0.21922        1.58539       -3.83264
H          0.35521       -0.28867       -5.46571
H          2.29264       -1.82177       -5.47757
H          5.59869       -3.08267       -4.38256
H          4.69203       -2.24022       -5.68259
H          3.84878       -3.40925       -4.59551
H          5.71855        1.72354       -1.11986
H          4.14937        2.46588       -1.53978
H          4.73133        2.33405       -3.97666
H          6.80640        1.33180       -4.45462
