66

C          1.18593       -0.20844        0.16058
C          2.70371       -0.20578       -0.03736
C          3.20621       -1.37792       -0.88873
C          4.72212       -1.36425       -1.11058
C          5.22724       -2.53561       -1.96180
C          6.73982       -2.47632       -2.21381
C          7.23248       -3.65378       -3.05901
S          9.03397       -3.41643       -3.34558
C          9.42960       -4.74389       -4.38143
N         10.34962       -4.75685       -5.31129
N         10.39658       -6.05980       -5.80691
C          9.49891       -6.73210       -5.16052
O          8.83050       -5.99012       -4.22264
C          9.15614       -8.18236       -5.35006
C         10.04394       -9.13006       -4.53085
C          9.72423       -9.00999       -3.05068
C         10.37603      -10.08441       -2.17593
O          9.73245      -10.01390       -0.91618
C         10.19830      -10.99397        0.03417
C          9.36729      -10.87973        1.30109
C          9.81425      -11.87530        2.37650
N          8.27294       -9.14482       -2.88969
C          7.34248       -8.89392       -3.80761
N          6.05424       -9.09489       -3.53031
N          7.71627       -8.42909       -5.05437
C          6.73864       -8.01272       -6.00928
O          5.53448       -8.14870       -5.86019
O          7.33946       -7.46030       -7.05066
C          6.45994       -6.93113       -8.11769
C          7.34988       -6.22262       -9.11026
H          0.86083        0.63847        0.77974
H          0.84748       -1.13060        0.65657
H          0.65679       -0.13717       -0.80146
H          3.20535       -0.23015        0.94478
H          3.01208        0.74219       -0.50968
H          2.69362       -1.36267       -1.86683
H          2.91274       -2.32839       -0.40849
H          5.23680       -1.37479       -0.13411
H          5.01049       -0.41480       -1.59399
H          4.69555       -2.54077       -2.92904
H          4.97148       -3.48783       -1.46490
H          7.27716       -2.46495       -1.25130
H          6.98973       -1.53112       -2.72256
H          6.73076       -3.68033       -4.03638
H          7.07077       -4.60943       -2.54222
H          9.30575       -8.40231       -6.41284
H         11.09148       -8.86979       -4.72699
H          9.87876      -10.16291       -4.87400
H         10.02296       -8.01973       -2.66656
H         11.45972       -9.88176       -2.09672
H         10.24245      -11.08704       -2.62941
H         11.26819      -10.81172        0.24381
H         10.10763      -12.00324       -0.41052
H          8.30808      -11.04903        1.04810
H          9.44320       -9.84956        1.68190
H          9.73522      -12.91427        2.02601
H          9.19062      -11.78162        3.27410
H         10.85639      -11.70143        2.67877
H          7.99761       -9.48249       -1.96463
H          5.76987       -9.42244       -2.61578
H          5.37543       -8.85029       -4.26308
H          5.73143       -6.26329       -7.63923
H          5.92344       -7.78524       -8.55212
H          7.90020       -5.39863       -8.63850
H          6.72493       -5.80339       -9.90995
H          8.06991       -6.91170       -9.56902
