50

C          0.52246        0.61823        0.03597
C          1.94388        0.05535        0.09416
C          2.98001        1.02131        0.71561
C          2.64265        1.40061        2.14802
C          2.30903        0.40396        3.05972
C          1.99818        0.71284        4.37823
C          2.01227        2.04311        4.77505
C          2.34420        3.05356        3.87302
N          2.67474        2.71021        2.57746
C          3.11626        3.77461        1.62802
C          1.96528        4.34060        0.78567
C          2.39447        5.56490       -0.02947
C          2.61974        6.80167        0.83846
O          2.46783        6.81860        2.04146
O          3.00519        7.92736        0.19489
C          2.29068        4.48325        4.34677
C          0.86124        5.04969        4.39872
O          0.12022        4.26765        5.32250
C         -1.24141        4.63159        5.43192
C         -1.96556        3.49447        6.14640
F         -1.44734        3.25282        7.37248
F         -3.27338        3.80559        6.29343
F         -1.88822        2.33466        5.43842
C          4.39884        0.42869        0.64996
O          5.30292        1.42451        1.13091
H         -0.15922       -0.10298       -0.43123
H          0.47903        1.54025       -0.56213
H          0.12343        0.84538        1.03489
H          2.29195       -0.17135       -0.92479
H          1.94870       -0.90804        0.62738
H          2.98528        1.91986        0.08712
H          2.29426       -0.62858        2.71609
H          1.73935       -0.07426        5.08662
H          1.75277        2.33168        5.79094
H          3.91448        3.34589        1.01450
H          3.57565        4.56558        2.22288
H          1.13255        4.62587        1.44229
H          1.57972        3.56910        0.10481
H          1.61602        5.80527       -0.77126
H          3.31162        5.36169       -0.60836
H          3.07616        7.78053       -0.76547
H          2.88577        5.17801        3.74853
H          2.69191        4.50204        5.36963
H          0.38379        5.02513        3.40182
H          0.91922        6.10597        4.71476
H         -1.71527        4.75970        4.44219
H         -1.37992        5.55753        6.01722
H          4.61665        0.16002       -0.39786
H          4.45572       -0.49189        1.25895
H          6.20753        1.07778        1.09410
