85

C          1.01256       -0.72236       -1.73373
C          2.52808       -0.73839       -1.52346
C          3.00217       -1.88236       -0.62145
C          4.51731       -1.90116       -0.40158
C          4.99624       -3.03645        0.50844
C          6.51252       -3.04457        0.72324
C          7.00378       -4.16741        1.64231
C          8.52363       -4.17152        1.82932
C          9.03819       -5.27468        2.75974
C         10.56508       -5.28759        2.87826
C         11.11777       -6.35746        3.82604
C         12.64915       -6.39925        3.82855
C         13.25469       -7.43061        4.78921
C         14.78107       -7.49917        4.65659
C         15.49787       -8.43879        5.62026
N         15.12025       -9.90591        5.49503
C         15.55041      -10.49820        4.16645
C         14.91539      -11.84607        3.82945
C         13.38485      -11.85041        3.66762
C         12.81893      -10.92745        2.57577
C         13.30498      -11.21573        1.15048
C         12.63806      -10.31297        0.10657
C         13.14416      -10.53917       -1.32098
C         12.47099       -9.63076       -2.35540
C         13.00027       -9.83991       -3.77539
C         15.61752      -10.69247        6.68278
C         14.64371      -10.50987        7.85738
N         13.27097      -10.65536        7.35487
H          0.70369        0.10810       -2.38349
H          0.47965       -0.61283       -0.77734
H          0.66554       -1.65671       -2.19981
H          2.85086        0.22248       -1.08787
H          3.03614       -0.81333       -2.49994
H          2.68335       -2.84570       -1.05770
H          2.49204       -1.80968        0.35553
H          4.83434       -0.93409        0.02731
H          5.02603       -1.97900       -1.37882
H          4.68239       -4.00507        0.08084
H          4.48905       -2.95845        1.48632
H          6.82562       -2.07133        1.14064
H          7.01725       -3.12929       -0.25548
H          6.68317       -5.14184        1.23333
H          6.51247       -4.07493        2.62690
H          8.84485       -3.19013        2.22037
H          9.00829       -4.27571        0.84234
H          8.69211       -6.25664        2.39144
H          8.58967       -5.14935        3.76082
H         10.91303       -4.29492        3.21329
H         11.00051       -5.43623        1.87425
H         10.72571       -7.34740        3.53257
H         10.74764       -6.17129        4.84921
H         13.04405       -5.40042        4.08201
H         13.00222       -6.61183        2.80407
H         12.80009       -8.41642        4.58374
H         12.98179       -7.17617        5.82789
H         15.20532       -6.50169        4.85558
H         15.05938       -7.72189        3.61473
H         15.27402       -8.15561        6.65743
H         16.58785       -8.39859        5.48360
H         14.07908       -9.98800        5.60696
H         16.64637      -10.57149        4.20765
H         15.29064       -9.75624        3.40300
H         15.21449      -12.61168        4.56154
H         15.38776      -12.15884        2.88578
H         12.90367      -11.60535        4.63060
H         13.08366      -12.88709        3.45042
H         13.02731       -9.86964        2.81720
H         11.72073      -11.01399        2.60147
H         13.10842      -12.27342        0.90336
H         14.39982      -11.08753        1.08199
H         12.79940       -9.25557        0.38443
H         11.54586      -10.46947        0.13795
H         12.98563      -11.59446       -1.60392
H         14.23662      -10.37789       -1.35183
H         12.61350       -8.57748       -2.05904
H         11.38228       -9.80659       -2.33599
H         14.07931       -9.63318       -3.83253
H         12.49678       -9.17868       -4.49301
H         12.84338      -10.87566       -4.11057
H         16.63583      -10.36333        6.92422
H         15.65263      -11.74588        6.38059
H         14.74999       -9.50679        8.29254
H         14.92197      -11.22530        8.64772
H         12.60694      -10.12782        7.91979
H         12.96384      -11.62865        7.36922
