101

C         14.26109      -11.13366        0.07413
C         13.93899       -9.63717        0.09885
C         14.44222       -8.88652       -1.13937
C         14.10801       -7.39128       -1.13467
C         14.63468       -6.64219       -2.36324
C         14.23878       -5.16230       -2.40405
C         14.78984       -4.41817       -3.62517
C         14.28988       -2.97527       -3.74977
C         14.85589       -2.23589       -4.96707
C         14.26260       -0.83730       -5.16550
C         14.83955       -0.09145       -6.37455
C         14.12519        1.23259       -6.66111
C         14.74679        2.03079       -7.81352
C         13.94812        3.30045       -8.14396
C         14.61050        4.19675       -9.16776
O         13.81450        5.31477       -9.46620
C         14.22232        5.82513      -10.74694
C         14.38176        4.52868      -11.58898
N         14.80100        3.51253      -10.53327
C         15.32100        4.51143      -12.81654
C         16.79637        4.38545      -12.44543
O         17.19717        3.73519      -11.46872
O         17.58856        4.98571      -13.30969
C         19.04877        4.84874      -13.12196
C         19.57024        3.61773      -13.83613
C         14.96513        3.36170      -13.78595
C         15.43205        6.77689      -10.64317
O         15.69467        7.38833      -11.89274
C         14.91398        8.57344      -12.15917
C         14.95697        8.85202      -13.65191
C         14.10089       10.05814      -14.05579
C         14.03902       10.26482      -15.57339
C         13.10090       11.39840      -15.99808
C         13.00000       11.57397      -17.51698
C         11.99657       12.65135      -17.94009
C         11.87442       12.82328      -19.45830
C         10.84607       13.88303      -19.86231
H         13.89057      -11.64148        0.97523
H         15.34594      -11.30828        0.01706
H         13.80253      -11.62631       -0.79643
H         14.37703       -9.17995        1.00230
H         12.84840       -9.49636        0.18938
H         14.01410       -9.35168       -2.04526
H         15.53581       -9.01726       -1.22386
H         14.51750       -6.92684       -0.22029
H         13.01269       -7.26398       -1.07172
H         14.26468       -7.13869       -3.27788
H         15.73506       -6.72906       -2.39905
H         14.58411       -4.66166       -1.48243
H         13.13725       -5.08249       -2.39507
H         14.51588       -4.97252       -4.54038
H         15.89344       -4.42425       -3.58972
H         14.54065       -2.41556       -2.83175
H         13.18710       -2.97967       -3.80765
H         14.67028       -2.83709       -5.87485
H         15.95369       -2.16248       -4.87368
H         14.42293       -0.23378       -4.25517
H         13.16772       -0.92412       -5.28046
H         14.77577       -0.73913       -7.26692
H         15.91544        0.09489       -6.21180
H         14.12667        1.85955       -5.75347
H         13.06414        1.03130       -6.88751
H         14.81624        1.37489       -8.70147
H         15.78517        2.30039       -7.55531
H         13.81877        3.90979       -7.23635
H         12.93205        3.05387       -8.49598
H         15.63054        4.48488       -8.85529
H         13.36683        6.39530      -11.13390
H         13.37828        4.23484      -11.92349
H         15.83869        3.32526      -10.72329
H         14.25277        2.64953      -10.59061
H         15.20050        5.47226      -13.33285
H         19.25212        4.82512      -12.04463
H         19.43941        5.77695      -13.55327
H         19.17750        2.69443      -13.39145
H         20.66512        3.59282      -13.74916
H         19.31767        3.64076      -14.90392
H         15.09117        2.37404      -13.31873
H         15.60670        3.39455      -14.67459
H         13.92343        3.45800      -14.11898
H         16.35146        6.24792      -10.34681
H         15.20959        7.51396       -9.85146
H         15.32837        9.41503      -11.57527
H         13.86740        8.42720      -11.83271
H         14.59740        7.95461      -14.18454
H         16.00330        9.00108      -13.96256
H         14.48916       10.97051      -13.57260
H         13.07496        9.92316      -13.66991
H         13.70743        9.32568      -16.05092
H         15.05440       10.45807      -15.96023
H         13.43501       12.34529      -15.53971
H         12.09350       11.20496      -15.58886
H         12.71322       10.61082      -17.97561
H         13.99654       11.81733      -17.92554
H         12.28129       13.61686      -17.48598
H         11.00371       12.40497      -17.52319
H         11.60437       11.85446      -19.91233
H         12.86116       13.08681      -19.87547
H          9.84305       13.62822      -19.48879
H         10.77739       13.98367      -20.95408
H         11.10828       14.87049      -19.45423
