71

C          8.98896        1.90616        1.88479
C         10.01179        0.81796        1.55110
C          9.37380       -0.47172        1.02170
C         10.40944       -1.54760        0.67549
C          9.82804       -2.86056        0.17495
O          8.94337       -2.66461       -0.99963
C          9.51822       -2.46184       -2.16793
O         10.71418       -2.46019       -2.42460
C          8.48302       -2.18159       -3.26006
N          9.25661       -1.96854       -4.52121
C          8.92343       -0.74004       -5.37186
C          8.60720        0.54344       -4.62097
C          9.73700        1.10230       -3.74028
C         11.07471        1.36552       -4.45179
S         10.93900        2.53466       -5.83529
C         11.41168        1.56331       -7.27742
S         11.88996       -0.04686       -7.19879
N         11.36609        2.26918       -8.42270
C         10.97652        3.69052       -8.48911
C          9.48319        3.89006       -8.75732
C         11.71974        1.64685       -9.71492
C         13.20476        1.78431      -10.04992
C          7.81537       -1.28851       -6.29071
O          7.86171       -2.72769       -6.16829
C          9.06137       -3.09827       -5.54257
C         10.27580       -3.23269       -6.45343
C         10.15507       -4.49033       -7.32688
C         11.30515       -4.59387       -8.32911
O         11.12359       -5.65275       -9.24894
O         10.06163       -5.67780       -6.52243
H          9.47927        2.81478        2.25814
H          8.28304        1.56901        2.65766
H          8.39854        2.18799        0.99955
H         10.60858        0.58439        2.44830
H         10.72983        1.19964        0.80491
H          8.76798       -0.23475        0.12962
H          8.66446       -0.86676        1.76913
H         10.99781       -1.80205        1.57334
H         11.13553       -1.16200       -0.05714
H          9.15143       -3.31971        0.90522
H         10.60946       -3.57574       -0.11133
H          7.90391       -1.28843       -3.00082
H          7.78045       -3.01471       -3.38067
H         10.25120       -1.95255       -4.19855
H          9.84426       -0.58442       -5.96084
H          7.67889        0.45138       -4.03514
H          8.38141        1.28335       -5.40628
H          9.95012        0.42727       -2.89333
H          9.37143        2.03364       -3.28248
H         11.53113        0.45718       -4.88443
H         11.79406        1.79930       -3.74529
H         11.57852        4.14505       -9.28868
H         11.28128        4.18522       -7.55665
H          9.17965        3.42590       -9.70514
H          9.25765        4.96279       -8.82033
H          8.87544        3.46181       -7.94968
H         11.09785        2.13491      -10.47902
H         11.43188        0.58988       -9.66193
H         13.51781        2.83660      -10.08801
H         13.40166        1.34062      -11.03486
H         13.82169        1.26113       -9.30879
H          7.99026       -0.97748       -7.33148
H          6.80696       -0.97350       -5.98584
H          8.88930       -4.03906       -4.99951
H         11.18636       -3.30586       -5.83258
H         10.39560       -2.34533       -7.09345
H          9.20618       -4.46179       -7.88526
H         12.26287       -4.69417       -7.77250
H         11.37165       -3.67011       -8.92364
H         10.92640       -6.46007       -8.74447
H         10.93261       -5.84305       -6.12016
