35

F          2.64080        0.85619       -0.13287
C          2.34990       -0.50026        0.14456
C          3.03364       -1.38246       -0.90002
C          4.53310       -1.29218       -0.90441
N          5.10643       -0.06589       -0.90361
N          6.39702        0.19581       -0.90345
C          7.23208       -0.83649       -0.92504
C          6.78871       -2.19132       -0.95863
C          5.40125       -2.38066       -0.92896
C          7.66248       -3.40958       -0.96542
C          7.83763       -3.98077        0.47883
C          7.82229       -5.50889        0.51373
C          6.44757       -6.08435        0.18596
O          5.46640       -5.40692       -0.05110
O          6.34408       -7.43101        0.16573
C          8.70527       -0.39143       -0.92110
C          9.33855       -0.24372       -2.33597
F          9.28439       -1.45054       -2.97909
F          8.61604        0.65664       -3.05141
F          8.81609        0.80946       -0.30083
F          9.45869       -1.29480       -0.21520
H          1.26023       -0.62097        0.09631
H          2.70355       -0.70483        1.16520
H          2.65770       -1.10689       -1.90001
H          2.74440       -2.42872       -0.72990
H          4.50076        0.76409       -0.85385
H          5.00685       -3.39922       -0.90039
H          8.63782       -3.20984       -1.41654
H          7.15198       -4.15665       -1.58784
H          7.03148       -3.61400        1.12923
H          8.77921       -3.60427        0.89728
H          8.11000       -5.85938        1.51876
H          8.56572       -5.93514       -0.18089
H          7.19515       -7.85420        0.37994
H         10.38656        0.08716       -2.25762
