61

C          0.81336       -0.09608        0.27159
C          2.33986       -0.17950        0.34348
C          2.96339        0.85619        1.28597
C          4.48813        0.75268        1.38536
C          5.12055        1.78067        2.32923
C          6.63369        1.60352        2.48997
C          7.28167        2.61539        3.44046
C          8.77806        2.36488        3.65432
C          9.44810        3.37388        4.59259
C         10.91286        3.02983        4.88569
C         11.60187        4.05411        5.79911
C         13.00562        3.61456        6.16543
O         13.59912        4.63546        7.02541
C         14.80864        4.24838        7.59625
N         15.04977        5.18333        8.70513
N         15.29350        6.50003        8.46782
N         15.56953        6.96793        7.20813
N         15.37927        7.16492        9.59540
N         15.18214        6.30547       10.58334
C         14.94403        5.08917       10.05603
C         14.57669        3.89264       10.84430
C         13.04875        3.81336       11.18199
C         12.18532        3.47979        9.96110
O         10.80880        3.47991       10.26514
O         12.83639        2.88108       12.22959
H          0.40015       -0.84889       -0.41371
H          0.48236        0.89175       -0.08185
H          0.35778       -0.26182        1.25938
H          2.76470       -0.05153       -0.66673
H          2.63875       -1.19043        0.66916
H          2.52498        0.74037        2.29338
H          2.68291        1.87081        0.95145
H          4.92907        0.86302        0.37870
H          4.76016       -0.26364        1.72186
H          4.63976        1.70922        3.32089
H          4.90436        2.79928        1.96212
H          7.11834        1.67108        1.49999
H          6.83899        0.58163        2.85531
H          6.76562        2.58242        4.41624
H          7.12867        3.63749        3.05184
H          9.29584        2.37388        2.67919
H          8.91645        1.34669        4.05929
H          8.89023        3.41898        5.54405
H          9.38552        4.38503        4.15440
H         11.47002        2.94856        3.93659
H         10.95852        2.03098        5.35384
H         11.01621        4.18936        6.72241
H         11.64676        5.03443        5.29860
H         13.64195        3.48437        5.27324
H         12.98870        2.66153        6.72467
H         15.66991        4.32818        6.90724
H         14.78159        3.23843        8.04139
H         14.69609        7.10453        6.68750
H         16.08735        7.84471        7.30999
H         15.11483        3.96216       11.79907
H         14.90089        2.97161       10.33680
H         12.73113        4.78179       11.59855
H         12.51590        2.49800        9.54952
H         12.32033        4.23177        9.16878
H         10.67610        2.95743       11.07551
H         13.06715        1.98556       11.92498
