57

C          0.66705       -0.26199        0.18278
C          2.19705       -0.22776        0.13528
C          2.82635        0.44724        1.35956
C          4.35834        0.48615        1.32535
C          4.97705        1.15952        2.55530
C          6.51022        1.19605        2.52978
C          7.10946        1.86488        3.77601
C          8.62468        1.87336        3.73951
O          9.09988        2.52515        4.97937
C         10.40671        2.51696        5.19743
O         11.27296        2.04049        4.48609
C         10.74718        3.20711        6.52630
N         12.19274        3.12080        6.66162
C         12.88940        3.44641        7.73934
N         12.33089        3.89824        8.89930
C         13.38580        4.44073        9.76196
C         14.66554        3.79048        9.18310
N         14.23234        3.37787        7.84160
C         15.15557        2.86251        6.83801
C         15.29680        1.34945        6.79516
C         14.85477        0.44740        7.86963
O         14.07273        0.61246        6.66805
C         13.33736        5.99388        9.74028
O         12.40770        6.53558        9.17191
C         14.42787        6.73880       10.46055
H          0.24753       -0.75258       -0.70607
H          0.24544        0.75321        0.23093
H          0.30624       -0.81058        1.06567
H          2.52578        0.29692       -0.77776
H          2.58623       -1.25643        0.04813
H          2.49526       -0.07738        2.27334
H          2.43682        1.47707        1.44678
H          4.69041        1.01294        0.41353
H          4.74771       -0.54346        1.23776
H          4.64166        0.63330        3.46603
H          4.58967        2.18965        2.64141
H          6.84847        1.72879        1.62445
H          6.89777        0.16651        2.44079
H          6.77408        1.33373        4.68119
H          6.74163        2.89993        3.85911
H          9.02454        2.44668        2.89077
H          9.05359        0.86199        3.70882
H         10.22437        2.69117        7.34740
H         10.39752        4.25129        6.49317
H         12.61788        2.57668        5.89941
H         11.50730        4.49996        8.82165
H         13.22992        4.12549       10.80570
H         14.98428        2.92166        9.77925
H         15.51266        4.48699        9.11373
H         16.13808        3.31659        7.03313
H         14.83992        3.22552        5.84568
H         16.10362        1.01219        6.13312
H         14.39179        0.84669        8.77706
H         15.33704       -0.52719        7.97927
H         14.78667        6.19737       11.34642
H         14.07251        7.73647       10.73907
H         15.28832        6.86665        9.78362
