85

C          9.99234      -10.51579       -6.48546
C          9.31743       -9.80575       -5.30951
C         10.26522       -8.88886       -4.52834
C          9.60635       -8.20365       -3.32815
C         10.56439       -7.31827       -2.52463
C          9.95321       -6.80486       -1.21791
C         10.88316       -5.86812       -0.43502
C         10.34007       -5.58575        0.95283
O         11.16867       -4.60201        1.60853
C         10.75483       -4.27415        2.89886
N         11.12742       -5.32099        3.88862
C         10.26326       -6.32978        4.15566
N          8.93455       -6.09606        4.16437
N         10.71956       -7.56184        4.43520
C          9.89248       -8.75809        4.64335
C          9.49429       -9.44777        3.32818
C         10.69738      -10.07188        2.59761
C         10.37927      -10.65408        1.23626
C         11.09078      -10.22907        0.10578
C         10.84483      -10.78863       -1.15007
C          9.86470      -11.77121       -1.29811
C          9.14182      -12.19800       -0.18032
C          9.40192      -11.64934        1.07695
C         12.58394       -5.55638        4.07636
C         13.40526       -4.27064        4.19696
C         13.04882       -3.34188        5.37789
C         13.42850       -3.97793        6.72936
C         12.96916       -3.19349        7.97465
C         13.32368       -3.89911        9.25538
C         14.38296       -3.65278       10.04884
C         15.40960       -2.58258        9.78401
C         14.61645       -4.45831       11.29970
C         13.71912       -1.97635        5.16770
H          9.28408      -11.15219       -7.03286
H         10.81955      -11.15669       -6.14468
H         10.41101       -9.79380       -7.20219
H          8.89233      -10.55568       -4.61964
H          8.46012       -9.21528       -5.67476
H         10.68268       -8.12661       -5.20901
H         11.13219       -9.47932       -4.18002
H          9.17973       -8.97247       -2.66123
H          8.75116       -7.59721       -3.67361
H         10.89269       -6.46643       -3.14422
H         11.48044       -7.88772       -2.28901
H          9.68786       -7.67490       -0.59107
H          9.00555       -6.28192       -1.43261
H         11.01301       -4.91654       -0.97332
H         11.88562       -6.31758       -0.34169
H         10.32759       -6.52321        1.54170
H          9.30243       -5.20334        0.90905
H          9.66773       -4.10446        2.94623
H         11.26827       -3.35015        3.18005
H          8.58155       -5.15526        4.27148
H          8.27566       -6.85529        4.26884
H         11.69687       -7.72375        4.21637
H          9.01509       -8.47937        5.24547
H         10.48072       -9.44050        5.27314
H          8.98610       -8.73165        2.66102
H          8.75235      -10.22342        3.56915
H         11.13269      -10.85446        3.24365
H         11.48583       -9.31292        2.46028
H         11.86054       -9.45991        0.21083
H         11.42213      -10.45844       -2.01381
H          9.67033      -12.20724       -2.27848
H          8.37978      -12.97114       -0.28520
H          8.84506      -12.01566        1.94240
H         12.97491       -6.15428        3.23447
H         12.69628       -6.13764        5.00247
H         13.36890       -3.71700        3.24657
H         14.45469       -4.59314        4.29718
H         11.95327       -3.18231        5.38246
H         14.52447       -4.10132        6.77364
H         13.00956       -4.99718        6.79969
H         11.87532       -3.05217        7.92500
H         13.40598       -2.18543        7.95940
H         12.65337       -4.71518        9.54883
H         15.22979       -2.02063        8.86012
H         16.41629       -3.02537        9.71755
H         15.44536       -1.86345       10.61780
H         13.84379       -5.22413       11.44393
H         14.62467       -3.80855       12.18972
H         15.59809       -4.95820       11.27328
H         14.81581       -2.07006        5.18900
H         13.43179       -1.25608        5.94345
H         13.44289       -1.54078        4.19664
