105

C          0.57634       -0.22832       -1.38117
C          2.07503       -0.33243       -1.08870
C          2.46827        0.20780        0.29084
C          3.96814        0.10356        0.58255
C          4.37443        0.62691        1.96395
C          5.87760        0.51213        2.23643
C          6.30320        1.00808        3.62228
C          7.81298        0.90862        3.86124
C          8.26188        1.37727        5.24915
C          9.78037        1.31790        5.44020
C         10.26183        1.78504        6.81784
C         11.78854        1.79891        6.94365
C         12.30598        2.26934        8.30695
C         13.83382        2.36584        8.36126
C         14.39106        2.83575        9.70923
C         15.91029        3.03075        9.68133
C         16.51166        3.49568       11.01162
C         18.01102        3.79368       10.89975
C         18.65110        4.24962       12.21633
C         20.09725        4.69788       11.98900
N         20.77650        5.13161       13.22724
C         21.53930        4.30581       14.03158
C         21.94586        5.04682       15.10021
N         21.41809        6.31598       14.93804
C         20.70000        6.36115       13.78581
C         20.01365        7.55334       13.22031
C         20.84636        8.31143       12.15632
C         20.21091        9.65487       11.79012
C         21.10275       10.50190       10.87959
C         20.53607       11.90208       10.62783
N         21.41576       12.65173        9.72964
C         21.65201        7.43075       15.86795
C         22.80271        8.33122       15.39556
C         23.07726        9.43996       16.40383
C         24.21640       10.45253       16.01762
C         24.11298       11.25924       14.66139
C         22.84390       12.14921       14.40809
F         22.60374       12.96701       15.43755
F         23.03782       12.87826       13.29668
F         21.75639       11.36293       14.20575
F         25.19370       12.06728       14.61060
F         24.18812       10.36760       13.62384
F         24.34023       11.34330       17.02655
F         25.37138        9.73118       15.92282
F         21.93276       10.15766       16.65143
F         23.46016        8.88406       17.59802
H          0.33032       -0.62511       -2.37588
H          0.23452        0.81701       -1.34713
H         -0.01480       -0.79153       -0.64350
H          2.64054        0.21178       -1.86429
H          2.39403       -1.38560       -1.16844
H          1.90506       -0.33738        1.06914
H          2.15048        1.26239        0.37387
H          4.52843        0.65449       -0.19371
H          4.28378       -0.95054        0.48781
H          3.81829        0.07442        2.74200
H          4.06322        1.68186        2.06352
H          6.42999        1.07600        1.46374
H          6.18848       -0.54095        2.11751
H          5.76929        0.43071        4.39763
H          5.98094        2.05639        3.75188
H          8.33986        1.50073        3.09190
H          8.13768       -0.13589        3.70840
H          7.76711        0.76368        6.02236
H          7.91369        2.41180        5.41672
H         10.26419        1.93438        4.66197
H         10.13027        0.28559        5.26378
H          9.83047        1.13596        7.59986
H          9.87147        2.79861        7.01731
H         12.20601        2.45110        6.15604
H         12.18211        0.78864        6.73445
H         11.94809        1.58439        9.09541
H         11.87054        3.25638        8.54303
H         14.17587        3.05751        7.57082
H         14.27214        1.38422        8.10957
H         14.12208        2.10966       10.49597
H         13.90704        3.78618        9.99495
H         16.16094        3.76634        8.89664
H         16.39532        2.08794        9.37431
H         16.34132        2.72889       11.78625
H         15.98573        4.40247       11.35776
H         18.16187        4.57380       10.13294
H         18.53863        2.89852       10.52836
H         18.62990        3.43537       12.95805
H         18.07029        5.08184       12.64724
H         20.14556        5.52831       11.27276
H         20.70409        3.88191       11.57420
H         21.72427        3.26904       13.77851
H         22.55368        4.78223       15.95704
H         19.77442        8.24054       14.04510
H         19.04570        7.24857       12.79633
H         20.96683        7.68560       11.25800
H         21.86530        8.48018       12.53837
H         19.99868       10.21473       12.71649
H         19.23363        9.48316       11.30785
H         21.25621       10.00336        9.90958
H         22.10247       10.59853       11.33900
H         20.35688       12.39690       11.60548
H         19.55276       11.81438       10.13845
H         22.27571       12.92539       10.20769
H         20.96874       13.51374        9.41868
H         21.87472        6.98738       16.84546
H         20.72107        8.00124       15.97116
H         22.55920        8.78667       14.42950
H         23.72518        7.74851       15.26668
