57

C          1.90820        1.20379        0.39624
C          3.30838        0.62041        0.19256
C          3.60291       -0.57851        1.10137
C          5.01524       -1.14417        0.92458
C          5.30665       -2.34937        1.82588
C          6.74200       -2.85968        1.66284
C          7.11108       -4.02034        2.58902
O          8.51333       -4.33125        2.58534
C          8.94979       -4.72270        1.31912
N          7.99795       -5.65189        0.67113
C          6.85432       -6.00183        1.27441
N          6.14332       -7.04080        0.78158
N          6.36837       -5.26375        2.30877
C          5.66767       -5.93279        3.45007
C          6.68067       -6.46460        4.47003
O          7.50709       -7.41061        3.79577
C          4.60433       -5.03910        4.08477
C          8.43685       -6.21518       -0.62623
C          7.60990       -5.78533       -1.83945
C          7.61717       -4.27981       -2.12130
C          6.96781       -3.93829       -3.47094
N          7.70379       -4.57022       -4.57062
H          1.73121        2.06045       -0.26751
H          1.76661        1.55107        1.43032
H          1.12804        0.45657        0.18846
H          4.06379        1.40370        0.37295
H          3.43376        0.31687       -0.86079
H          2.86058       -1.37349        0.90911
H          3.46013       -0.28000        2.15474
H          5.75413       -0.35031        1.12949
H          5.16718       -1.43380       -0.13034
H          4.59489       -3.15814        1.59276
H          5.12804       -2.07045        2.87836
H          7.45250       -2.04833        1.88698
H          6.90471       -3.14230        0.61168
H          6.89825       -3.74305        3.62801
H          9.90740       -5.24469        1.46503
H          9.10225       -3.86733        0.63435
H          6.62247       -7.78477        0.28958
H          5.26219       -7.28566        1.21122
H          5.15769       -6.81330        3.03652
H          6.11812       -6.93432        5.29607
H          7.27724       -5.63664        4.89358
H          8.20856       -7.70011        4.39862
H          5.03226       -4.17271        4.60623
H          4.03975       -5.61862        4.82584
H          3.89873       -4.67146        3.33116
H          8.49157       -7.31373       -0.54597
H          9.47751       -5.88260       -0.75114
H          6.57146       -6.13839       -1.74145
H          8.02750       -6.30201       -2.71744
H          8.65577       -3.90343       -2.11966
H          7.08336       -3.72796       -1.33070
H          6.88402       -2.83834       -3.55586
H          5.93892       -4.33150       -3.48512
H          8.54857       -4.04238       -4.79359
H          7.14312       -4.59259       -5.42127
