58

N          1.93369       -1.06309        0.93426
C          1.90692       -2.36768        0.23044
C          1.87343       -3.58894        1.17882
C          1.02422       -3.43225        2.47340
C         -0.33113       -2.83626        2.30946
N         -1.48283       -3.40621        2.57137
N         -2.41485       -2.43266        2.30109
C         -1.83043       -1.28897        1.87780
N         -2.44473       -0.14634        1.50853
C         -1.63309        0.98057        1.05916
C         -0.78845        1.63587        2.16474
O          0.42540        1.65988        2.15166
O         -1.57042        2.16005        3.12424
C         -0.87505        2.79752        4.23103
C         -3.90495       -0.04049        1.65588
C         -4.37579        0.09191        3.11285
C         -5.89278       -0.14633        3.21849
S         -6.40600       -1.01830        4.72098
C         -6.14443       -2.73212        4.28709
S         -5.51492       -3.22845        2.79615
N         -6.53802       -3.59909        5.23675
C         -7.15194       -3.17912        6.51145
C         -6.13293       -3.01030        7.64091
C         -6.39452       -5.05774        5.05232
C         -7.63865       -5.69507        4.43257
N         -0.49663       -1.52799        1.88753
O          1.51166       -4.74534        0.43750
H          2.08531       -0.29904        0.27318
H          2.70875       -1.01013        1.59942
H          2.75258       -2.50289       -0.46045
H          0.99160       -2.38526       -0.38506
H          2.89950       -3.79882        1.51926
H          1.58359       -2.81846        3.19839
H          0.91386       -4.42960        2.91673
H         -3.42752       -2.62236        2.49364
H         -2.31301        1.72976        0.63475
H         -0.94108        0.66404        0.26587
H         -1.66376        3.21496        4.86256
H         -0.21439        3.58800        3.85646
H         -0.28573        2.05516        4.78332
H         -4.36299       -0.93789        1.20858
H         -4.22529        0.81666        1.04991
H         -4.09940        1.07520        3.51577
H         -3.85255       -0.65398        3.72659
H         -6.26476       -0.74417        2.37338
H         -6.45792        0.79529        3.25295
H         -7.89450       -3.94643        6.77189
H         -7.71349       -2.24971        6.34163
H         -5.59088       -3.94539        7.83518
H         -6.65134       -2.72469        8.56569
H         -5.40057       -2.22797        7.40418
H         -6.19042       -5.48129        6.04629
H         -5.51551       -5.22638        4.41885
H         -8.53502       -5.51907        5.04299
H         -7.49511       -6.78090        4.35503
H         -7.81806       -5.29967        3.42503
H          0.39490       -0.99771        1.55295
H          0.59023       -4.66274        0.13867
