70

N          1.77848        1.38205        1.29007
C          3.15686        0.94753        1.09633
C          3.17584       -0.31659        0.22579
C          4.59751       -0.79500       -0.10040
N          5.25324       -1.29815        1.12670
C          5.31296       -2.60755        1.26333
S          4.81104       -3.50918       -0.07606
C          4.78770       -1.94177       -1.14325
C          3.70094       -2.05424       -2.23053
C          2.39195       -2.77849       -1.88285
C          1.34541       -2.62807       -2.99243
C          0.05636       -3.41075       -2.72095
C         -1.00799       -3.21684       -3.80591
C         -2.28622       -4.02855       -3.56922
C         -3.35590       -3.79226       -4.64019
C         -4.62369       -4.63337       -4.45739
C         -5.69749       -4.32701       -5.50640
C         -6.95269       -5.19948       -5.39681
C         -8.01389       -4.83552       -6.43944
C         -9.26988       -5.71189       -6.35369
N        -10.27600       -5.35876       -7.34942
C        -10.32712       -5.83806       -8.63871
C        -11.34088       -5.17073       -9.31441
C        -11.91601       -4.25045       -8.40442
C        -11.23644       -4.38433       -7.20038
C          6.23423       -1.87512       -1.74850
C          6.59583       -0.60148       -2.45894
C          7.35887        0.39713       -1.99421
Br         8.13312        0.43000       -0.26114
Br         6.00285       -0.39860       -4.26644
H          1.73662        2.32914        1.66392
H          1.28149        0.77932        1.94655
H          3.70992        0.77017        2.04570
H          3.69441        1.75251        0.57036
H          2.65158       -0.08305       -0.71134
H          2.60981       -1.12122        0.72106
H          5.18215        0.06609       -0.46171
H          5.52046       -0.66510        1.87760
H          5.66203       -3.07064        2.18575
H          4.14919       -2.55398       -3.10152
H          3.47927       -1.03096       -2.57485
H          1.96647       -2.41206       -0.93697
H          2.60202       -3.85078       -1.72525
H          1.77831       -2.95622       -3.95318
H          1.10642       -1.55754       -3.11802
H         -0.35861       -3.10624       -1.74397
H          0.29439       -4.48476       -2.62780
H         -0.58184       -3.48898       -4.78737
H         -1.26382       -2.14499       -3.87564
H         -2.70109       -3.77984       -2.57660
H         -2.03424       -5.10291       -3.53113
H         -2.92597       -3.99956       -5.63588
H         -3.62842       -2.72219       -4.64847
H         -5.03774       -4.46231       -3.44813
H         -4.36123       -5.70514       -4.49906
H         -5.26453       -4.44488       -6.51506
H         -5.98716       -3.26480       -5.42708
H         -7.38028       -5.10408       -4.38321
H         -6.67145       -6.26124       -5.50866
H         -7.59004       -4.92571       -7.45300
H         -8.30964       -3.78017       -6.32227
H         -9.73425       -5.62648       -5.35975
H         -9.01205       -6.77218       -6.49465
H         -9.64739       -6.61718       -8.96847
H        -11.63613       -5.34464      -10.34388
H        -12.74238       -3.57307       -8.59231
H        -11.36379       -3.87224       -6.25190
H          6.35586       -2.72407       -2.43578
H          6.96864       -2.00391       -0.93921
H          7.62625        1.27255       -2.58084
