51

C          0.36272       -0.94898       -0.79452
C          1.64602       -0.44247       -0.17658
O          2.39626       -1.61053        0.31011
C          3.59165       -1.35532        0.85780
O          4.11198       -0.26155        0.95327
C          4.22317       -2.64502        1.38901
C          5.71741       -2.40850        1.69065
C          6.63926       -2.41636        0.44460
C          7.29400       -3.80347        0.45523
N          7.12105       -4.24979        1.86914
C          6.28869       -3.50271        2.53911
C          6.00175       -3.67695        3.98546
C          6.75722       -2.58165        4.77921
O          7.89729       -2.25500        4.52984
O          5.97777       -2.09875        5.74960
C          6.58613       -1.07314        6.61851
C          5.52582       -0.62415        7.59683
C          7.80443       -5.41648        2.36530
C          7.11147       -6.61800        2.51713
C          7.78060       -7.74573        2.99277
C          9.13733       -7.65067        3.31305
C          9.83681       -6.45218        3.15785
C          9.18121       -5.31301        2.66699
O          9.74479       -4.10226        2.45460
C         11.09206       -3.88341        2.90732
H         -0.22188       -0.09545       -1.16350
H         -0.25043       -1.48831       -0.06122
H          0.56313       -1.61499       -1.64347
H          1.46801        0.22177        0.68044
H          2.28116        0.09157       -0.89614
H          4.06910       -3.46132        0.66882
H          3.66493       -2.92230        2.29733
H          5.78271       -1.44697        2.22419
H          7.40208       -1.63574        0.54510
H          6.08830       -2.22436       -0.48220
H          8.36528       -3.79689        0.22425
H          6.80240       -4.54757       -0.18906
H          6.35201       -4.65252        4.34987
H          4.92568       -3.59204        4.18222
H          6.94256       -0.25933        5.97250
H          7.45556       -1.52838        7.11272
H          4.65563       -0.20232        7.07753
H          5.94298        0.15530        8.24864
H          5.19013       -1.45361        8.23230
H          6.05331       -6.66163        2.25558
H          7.24630       -8.68740        3.10690
H          9.66837       -8.52559        3.68857
H         10.89377       -6.40600        3.41406
H         11.30140       -2.83211        2.68972
H         11.80372       -4.52265        2.36467
H         11.16961       -4.05696        3.99019
