68

C          4.79168        7.46109        7.09863
C          4.63816        6.21417        6.22311
C          4.77700        4.90836        7.01635
C          4.52708        3.63381        6.20330
N          5.51456        3.41061        5.14106
C          6.36807        2.36684        5.11851
O          6.42007        1.52397        6.03574
C          7.23820        2.24441        3.85800
C          8.58117        1.51780        4.09033
C          9.37152        1.25697        2.80070
C          8.91121       -0.06016        2.16989
N          9.11442       -1.17115        3.11465
C          8.67386       -0.96819        4.37353
N          8.57633       -2.00141        5.25823
C          7.87327       -3.26247        4.96589
C          6.42214       -3.23398        5.46475
C          5.68040       -4.53940        5.14902
C          4.23947       -4.49287        5.66582
S          3.38167       -6.02969        5.23081
O          3.21835       -6.08855        3.79647
O          3.96054       -7.12603        5.97111
Cl         1.50791       -5.63738        6.05536
N          8.31859        0.24963        4.78232
C         10.08605       -2.23143        2.79034
C         11.48209       -1.69588        2.47679
O         11.90375       -0.89889        3.56383
C         13.27171       -0.48765        3.45798
C         13.64770        0.32854        4.67465
O         13.71176       -0.51768        5.80611
C         14.12025        0.17266        6.97995
H          4.69377        8.38028        6.50642
H          5.77387        7.48546        7.59274
H          4.02423        7.48930        7.88564
H          5.39212        6.24935        5.41670
H          3.65354        6.23246        5.72510
H          4.05034        4.90949        7.84527
H          5.77458        4.84982        7.48193
H          3.52878        3.66720        5.73782
H          4.56916        2.74819        6.84832
H          5.54065        4.06653        4.36695
H          7.44715        3.23982        3.43907
H          6.64426        1.69761        3.10597
H          9.19136        2.13665        4.76915
H         10.44184        1.17590        3.03306
H          9.23834        2.09239        2.10000
H          9.47496       -0.28167        1.25769
H          7.84595       -0.02522        1.88964
H          8.51026       -1.69565        6.22630
H          8.42922       -4.08948        5.43243
H          7.89741       -3.42722        3.88111
H          5.89955       -2.38016        5.00275
H          6.41626       -3.05540        6.55330
H          6.20500       -5.39178        5.60701
H          5.67226       -4.71194        4.06170
H          3.64987       -3.68641        5.20917
H          4.18204       -4.41675        6.76006
H          7.61794        0.38715        5.54239
H          9.71650       -2.82131        1.93772
H         10.15671       -2.89040        3.66156
H         11.50113       -1.11822        1.52969
H         12.14588       -2.56974        2.32924
H         13.41631        0.12473        2.54700
H         13.92636       -1.37541        3.38711
H         12.90543        1.14004        4.82903
H         14.62818        0.80998        4.48382
H         14.17587       -0.56946        7.78453
H         13.39625        0.95985        7.26168
H         15.11417        0.63866        6.85057
