76

C          2.39433        2.36678       -3.32801
C          3.49421        1.64836       -2.54815
C          4.23500        2.57431       -1.53556
C          3.38913        2.88841       -0.32092
C          2.76688        4.12620       -0.31336
C          1.79226        4.49856        0.62777
C          1.33889        3.61177        1.58493
C          1.96378        2.32458        1.63902
C          3.05001        1.97451        0.74283
C          3.73200        0.73929        1.00642
C          5.06120        0.27914        0.46858
C          6.25261        0.95825        1.18766
C          6.69171        0.24970        2.47671
S          7.51203       -1.33950        2.13189
C          6.42414       -2.60061        2.77519
S          4.92186       -2.28932        3.47348
N          6.93949       -3.84308        2.68131
C          8.26882       -4.17206        2.14212
C          8.12372       -5.19989        1.01604
O          7.44739       -6.36718        1.46172
C          6.15121       -6.04750        1.95517
C          6.20854       -5.04540        3.10972
N          3.24054       -0.07921        1.94564
C          2.14108        0.16328        2.70869
C          1.51161        1.36403        2.58791
C          0.25524        3.95389        2.58852
C         -0.32559        5.38410        2.58790
C         -1.48934        5.55661        1.59096
F         -2.58324        4.85880        2.01932
F         -1.85184        6.84630        1.46351
F         -1.18048        5.08850        0.35150
O         -0.76045        5.76516        3.88074
O          2.98043        0.56951       -1.76279
C          2.63471       -0.65382       -2.42714
C          2.39499       -1.64972       -1.32012
C          1.18927       -1.62791       -0.60475
C          1.00447       -2.46088        0.50142
C          2.02785       -3.32276        0.90863
C          3.22818       -3.35979        0.19328
C          3.40758       -2.53078       -0.91671
H          2.81086        3.20070       -3.90957
H          1.62223        2.76015       -2.65297
H          1.90940        1.68497       -4.03891
H          4.25069        1.25789       -3.25727
H          4.45985        3.51869       -2.04878
H          5.20542        2.13681       -1.28111
H          3.02220        4.84048       -1.09716
H          1.37041        5.49888        0.54744
H          5.10733        0.43744       -0.60709
H          5.13002       -0.80970        0.60348
H          6.00605        2.00366        1.43146
H          7.10285        1.00105        0.49161
H          5.86496        0.03596        3.17287
H          7.44287        0.84743        3.00938
H          8.87761       -4.58988        2.96017
H          8.76979       -3.27197        1.77016
H          9.11542       -5.52202        0.67263
H          7.58392       -4.74136        0.16346
H          5.70647       -6.99023        2.29930
H          5.52392       -5.63992        1.13751
H          6.74198       -5.48501        3.96800
H          5.20400       -4.74767        3.42957
H          3.80259       -0.93123        2.19413
H          1.85835       -0.62420        3.40302
H          0.66221        1.57523        3.23164
H          0.66151        3.82493        3.60431
H         -0.57723        3.23538        2.49910
H          0.44566        6.12010        2.31642
H         -1.57548        5.27919        4.09587
H          3.46152       -0.97898       -3.08510
H          1.73075       -0.52254       -3.04757
H          0.39335       -0.94840       -0.91541
H          0.05774       -2.44292        1.04303
H          1.88768       -3.97131        1.77416
H          4.02690       -4.03464        0.50230
H          4.34587       -2.56300       -1.47517
