44

O          0.95208        0.38088        0.06749
C          2.30875        0.08325        0.33519
C          2.72830       -0.87907       -0.78969
N          4.18988       -1.01896       -0.88431
C          5.04221       -0.34432       -1.69029
C          4.65082        0.64954       -2.72664
C          5.85446        1.26667       -3.45456
C          5.41195        2.30582       -4.48731
C          6.60351        2.92061       -5.23951
N          6.19634        3.94153       -6.19023
C          5.76880        3.70860       -7.48017
C          5.35172        4.91529       -8.02458
C          5.52533        5.90900       -7.03025
C          6.04318        5.28149       -5.90551
N          6.30716       -0.72082       -1.40251
N          6.27240       -1.60476       -0.43293
N          4.99794       -1.79556       -0.09497
C          4.53315       -2.74790        0.94388
O          3.35767       -2.88825        1.16192
O          5.59427       -3.29443        1.47387
C          5.34587       -4.29149        2.55628
C          6.69433       -4.70822        3.08630
H          0.48732        0.56262        0.89829
H          2.44966       -0.40089        1.31389
H          2.94055        0.99188        0.29856
H          2.40599       -0.46791       -1.75485
H          2.28175       -1.86849       -0.65635
H          4.04461        1.43855       -2.24826
H          3.97789        0.15533       -3.45006
H          6.43490        0.46669       -3.93944
H          6.52866        1.72726       -2.71596
H          4.84930        3.11666       -3.99629
H          4.72610        1.85050       -5.22039
H          7.15739        2.14141       -5.78458
H          7.31019        3.37744       -4.53064
H          5.81048        2.71238       -7.90939
H          4.98204        5.05892       -9.03444
H          5.31670        6.96963       -7.12279
H          6.33002        5.68110       -4.93779
H          4.78383       -5.11800        2.10165
H          4.71584       -3.79886        3.30844
H          7.30733       -5.17391        2.30497
H          6.54203       -5.44656        3.88532
H          7.23990       -3.85617        3.51034
