68

O          4.12797       -0.34493        0.67876
C          3.39698        0.50663        1.19131
N          2.07965        0.68636        0.87720
C          1.29908        0.03722       -0.11277
C          0.11613        0.68120       -0.51219
C         -0.68938        0.11735       -1.49944
C         -0.32352       -1.09243       -2.09766
C          0.84568       -1.73655       -1.68707
C          1.66301       -1.18685       -0.69598
C          3.93458        1.48637        2.24445
C          5.45895        1.58773        2.17006
N          5.88418        2.05160        0.83947
C          6.47906        1.28706       -0.08159
N          7.36483        0.27352        0.26176
C          7.49385       -0.72372       -0.82018
O          7.91015       -0.07422       -2.00961
C          6.90955        0.76800       -2.49022
N          6.19020        1.45946       -1.38166
C          5.06497        2.26284       -1.80251
C          5.23484        3.62773       -2.04567
C          4.11393        4.35244       -2.46860
N          2.90641        3.80304       -2.65678
C          2.77522        2.48665       -2.43628
C          3.82222        1.66401       -2.00918
C          8.57664        0.57466        1.03184
C          8.87846       -0.35978        2.28859
C          9.21886       -1.89900        2.14113
C         10.48974       -2.42539        1.35150
C         11.95867       -1.94986        1.70116
C         12.59014       -2.18341        3.13259
C         12.77527       -3.63745        3.72935
C         13.61390       -4.69393        2.91725
F         14.78734       -4.17307        2.52265
F         13.84732       -5.74885        3.71305
F         12.93425       -5.11736        1.83541
F         13.40670       -3.45250        4.91517
F         11.54936       -4.16998        3.97013
F         13.81375       -1.60332        3.07547
F         11.83527       -1.50024        4.03525
F         12.76087       -2.55453        0.78960
F         12.00811       -0.60841        1.48254
F         10.43633       -3.77235        1.44930
F         10.30980       -2.09612        0.03557
F          9.28178       -2.38256        3.39961
F          8.14305       -2.47794        1.51992
F          9.88145        0.23749        2.96664
F          7.76038       -0.32544        3.07194
F          9.66025        0.55750        0.21463
F          8.47434        1.82291        1.54834
H          1.60958        1.45658        1.34557
H         -0.16825        1.63034       -0.05120
H         -1.60496        0.62618       -1.80149
H         -0.95174       -1.53350       -2.87100
H          1.12765       -2.68964       -2.13602
H          2.56469       -1.69834       -0.37136
H          3.66455        1.11961        3.24806
H          3.46463        2.47809        2.14132
H          5.89830        0.60136        2.33055
H          5.84795        2.27225        2.93442
H          5.37745        2.85047        0.46020
H          6.51332       -1.21282       -0.92819
H          8.25884       -1.45717       -0.57379
H          6.13423        0.22279       -3.06120
H          7.38602        1.51840       -3.13735
H          6.20462        4.11058       -1.91565
H          4.19622        5.42409       -2.66674
H          1.78285        2.06010       -2.60142
H          3.66748        0.60116       -1.82596
