57

C          5.43441       -1.18759        0.77226
C          4.20134       -0.42383        0.30584
C          3.06372       -1.32373       -0.19535
N          2.69884       -2.45016        0.71292
C          1.77287       -2.17150        1.68629
N          0.85858       -2.96602        2.26549
N          0.13605       -2.30519        3.22351
C          0.61550       -1.08368        3.22111
N          1.62710       -0.96532        2.27741
C          0.12345        0.05948        4.04480
C         -0.62910       -0.36499        5.30977
O          0.28879       -0.92010        6.22879
Si        -0.14012       -1.33711        7.81650
C          1.42999       -2.05393        8.54171
C         -0.68495        0.20843        8.73933
C         -1.53161       -2.60114        7.77642
N          2.36038       -3.74751        0.02836
O          3.45023       -3.93358       -0.85498
O          2.48550       -4.73352        1.02837
O          3.65496        0.44389        1.32899
C          4.45624        1.61206        1.68044
C          4.71970        2.53177        0.51604
C          3.65956        3.18846       -0.13050
C          3.90962        4.04491       -1.20281
C          5.22256        4.26236       -1.63689
C          6.28383        3.61999       -0.99602
C          6.03064        2.75565        0.07322
H          5.78598       -1.85734       -0.02446
H          5.21852       -1.79118        1.66363
H          6.25636       -0.50123        1.00777
H          4.46233        0.21161       -0.55946
H          3.40234       -1.79442       -1.12227
H          2.17321       -0.71472       -0.41658
H          0.74037       -3.96324        2.11158
H          2.29645       -0.18196        2.07340
H         -0.53969        0.67720        3.41513
H          0.97780        0.69213        4.33058
H         -1.42203       -1.08730        5.04506
H         -1.12078        0.53580        5.71929
H          2.24482       -1.31701        8.53946
H          1.76402       -2.93599        7.97811
H          1.26451       -2.36618        9.58290
H          0.11491        0.96149        8.77021
H         -0.94413       -0.04274        9.77846
H         -1.57493        0.67295        8.29106
H         -1.24643       -3.49238        7.19975
H         -2.45167       -2.19139        7.33539
H         -1.78113       -2.92995        8.79576
H          3.03092       -4.38912       -1.60947
H          3.43181       -4.73879        1.30232
H          5.40083        1.28627        2.14272
H          3.85462        2.11038        2.45372
H          2.63453        3.03385        0.21436
H          3.08184        4.55677       -1.69511
H          5.41568        4.93929       -2.46970
H          7.30895        3.79214       -1.32539
H          6.86285        2.26089        0.57996
