106

C         15.95794       -0.58547       11.80923
C         15.46718       -0.44269       10.36633
C         16.15471        0.69319        9.60061
C         15.66444        0.84767        8.15763
C         16.34404        1.98826        7.39337
C         15.83357        2.15321        5.95827
C         16.49497        3.30653        5.19708
C         15.94805        3.49766        3.77872
C         16.60348        4.65403        3.01695
C         16.01893        4.87695        1.61813
C         16.70368        6.00683        0.84255
C         16.09447        6.26380       -0.54013
C         16.84387        7.33404       -1.34093
C         16.23725        7.61200       -2.72046
C         17.06325        8.60592       -3.54690
C         16.49129        8.85777       -4.94935
C         17.27186        9.88973       -5.77113
N         18.76212        9.50611       -5.77622
C         19.08620        8.25160       -6.55097
C         18.67440        8.43781       -8.01080
C         17.19044        8.86236       -8.09287
C         16.84390       10.10745       -7.24515
C         15.36034       10.57545       -7.38315
C         15.10534       11.92337       -6.69545
O         15.25455       11.81055       -5.26871
C         14.94137       10.67866       -8.87068
C         13.48072       11.07646       -9.11597
C         19.62274        9.38400       -8.78121
C         21.05416        8.86048       -8.94929
C         21.95666        9.80214       -9.75394
C         23.39638        9.29386       -9.88610
C         24.31318       10.24961      -10.65615
C         25.76900        9.77742      -10.73047
C         26.68804       10.75416      -11.47104
C         28.15721       10.31899      -11.50310
C         29.06605       11.31819      -12.22370
H         15.44637       -1.40654       12.33042
H         15.77914        0.33509       12.38485
H         17.03816       -0.79163       11.84546
H         14.37686       -0.27358       10.36252
H         15.62582       -1.39182        9.82658
H         17.24618        0.52358        9.60075
H         15.99874        1.64290       10.14269
H         14.57242        1.01312        8.16065
H         15.82265       -0.10091        7.61459
H         17.43531        1.81937        7.37738
H         16.19452        2.93447        7.94301
H         14.74069        2.31123        5.97838
H         15.99043        1.21126        5.40354
H         17.58533        3.13717        5.15054
H         16.36033        4.24282        5.76708
H         14.85803        3.66735        3.83061
H         16.07956        2.56252        3.20619
H         17.68910        4.46820        2.93485
H         16.50118        5.58284        3.60549
H         14.93957        5.09310        1.70493
H         16.09270        3.94064        1.03720
H         17.77666        5.76999        0.72977
H         16.66195        6.93654        1.43686
H         15.03738        6.56059       -0.42642
H         16.08378        5.32167       -1.11607
H         17.89576        7.01834       -1.46347
H         16.87633        8.27245       -0.76024
H         15.21050        7.99857       -2.60785
H         16.14722        6.66496       -3.28045
H         18.09218        8.19487       -3.59946
H         17.13890        9.56404       -3.00321
H         15.47687        9.26582       -4.84658
H         16.38556        7.90545       -5.49197
H         17.24192       10.84724       -5.23467
H         19.05854        9.39463       -4.79770
H         19.29956       10.28764       -6.17352
H         18.53846        7.43345       -6.06841
H         20.16092        8.06560       -6.43100
H         18.76181        7.44239       -8.47612
H         16.54764        8.01852       -7.79425
H         16.96413        9.05941       -9.14690
H         17.45412       10.95114       -7.62296
H         14.70415        9.82679       -6.90518
H         14.08489       12.25691       -6.93098
H         15.80679       12.68060       -7.09881
H         14.86565       12.59857       -4.86056
H         15.10015        9.70303       -9.34777
H         15.61241       11.38505       -9.39058
H         12.78996       10.44713       -8.53551
H         13.22970       10.94677      -10.17665
H         13.27202       12.12470       -8.86586
H         19.65569       10.38891       -8.31722
H         19.18210        9.55673       -9.77610
H         21.02087        7.87218       -9.43904
H         21.52405        8.69015       -7.96390
H         21.96524       10.79795       -9.27577
H         21.52399        9.95349      -10.75778
H         23.39318        8.30701      -10.38068
H         23.81499        9.12447       -8.87783
H         24.28035       11.24589      -10.18060
H         23.91984       10.39062      -11.67801
H         25.81107        8.78865      -11.21998
H         26.15268        9.62319       -9.70625
H         26.61637       11.74949      -10.99734
H         26.32430       10.88717      -12.50521
H         28.23416        9.33147      -11.98880
H         28.51441       10.17469      -10.46914
H         28.75758       11.45705      -13.27053
H         30.11142       10.98065      -12.22857
H         29.03857       12.30510      -11.73804
