58

C          1.40178        0.67231       -0.71195
O          2.65606        0.37247       -0.01876
C          3.49555        1.38527        0.12666
O          3.32631        2.53877       -0.23167
C          4.79908        0.95073        0.80319
N          5.54612        2.20193        1.16358
C          5.21538        2.64973        2.58332
C          5.56088        4.10758        2.86756
C          4.83685        5.13121        1.96886
C          5.10753        6.55728        2.40083
C          6.23208        7.24894        1.92755
C          6.49950        8.55224        2.35378
C          5.64102        9.18163        3.25939
C          4.51500        8.50323        3.73367
C          4.25113        7.19923        3.30698
C          7.03478        2.12020        0.89020
C          7.35928        2.09934       -0.59842
C          8.87664        2.12025       -0.83987
N          9.15459        1.98177       -2.25980
C         10.59756        1.87339       -2.55478
C         10.86588        1.77319       -4.03638
C         11.34821        0.59366       -4.61570
C         11.62784        0.50823       -5.98158
C         11.42203        1.62337       -6.79659
C         10.93427        2.81052       -6.24730
C         10.65745        2.88106       -4.87907
O         10.16508        4.03185       -4.29439
H          0.86170       -0.27675       -0.73751
H          1.61763        1.03365       -1.72348
H          0.84447        1.43129       -0.15178
H          5.39133        0.36046        0.09244
H          4.62164        0.34465        1.69894
H          5.12061        2.91677        0.53111
H          5.74512        1.95921        3.25420
H          4.13422        2.48807        2.69815
H          6.64803        4.27558        2.83689
H          5.27181        4.28364        3.91532
H          3.75316        4.93448        1.99248
H          5.15347        5.01629        0.91721
H          6.90049        6.77037        1.20660
H          7.37450        9.07959        1.97196
H          5.84487       10.20101        3.58828
H          3.83528        8.99302        4.43189
H          3.36155        6.68080        3.67328
H          7.40138        1.22357        1.41030
H          7.48341        2.99796        1.37131
H          6.90004        2.97526       -1.08833
H          6.95558        1.20376       -1.09430
H          9.34010        1.26372       -0.32005
H          9.31273        3.03658       -0.38005
H          8.79426        2.79532       -2.76475
H         10.97382        0.96441       -2.06067
H         11.16429        2.73149       -2.13602
H         11.51482       -0.27363       -3.97319
H         12.00768       -0.42073       -6.40608
H         11.63977        1.57439       -7.86395
H         10.76945        3.68648       -6.88049
H         10.13092        4.73071       -4.96776
