58

C          0.91456       -0.70502        0.48223
C          2.11809       -0.13366        0.57455
C          3.18414       -0.56752        1.54643
C          4.63913       -0.61987        1.06333
N          5.00449       -1.83821        0.18243
C          6.46535       -1.56582       -0.13802
C          6.54603       -0.04632       -0.34666
C          5.24914        0.55498        0.26997
C          5.51856        1.80800        1.12364
C          4.29263        2.71642        1.27581
C          4.40810        3.96389        2.15462
C          4.32111        3.72607        3.70482
Br         5.86296        2.80295        4.50828
F          4.16014        4.89387        4.34080
F          3.21628        2.96296        3.94447
Br         5.98602        5.04735        1.72455
F          3.29238        4.73287        1.88048
C          4.15656       -2.07232       -1.06126
C          3.11528       -3.16298       -0.81767
C          2.61886       -3.89720       -2.07340
C          1.43930       -3.26379       -2.91268
C          1.59764       -1.87694       -3.65317
C          2.68731       -1.63236       -4.76921
C          2.74958       -2.51471       -6.07939
C          1.48710       -2.55130       -7.02111
F          1.06830       -1.30601       -7.30274
F          1.83253       -3.16814       -8.16015
F          0.48312       -3.23439       -6.44533
F          3.77656       -1.99895       -6.80167
F          3.05999       -3.78781       -5.73243
F          2.53865       -0.33853       -5.14107
F          3.91546       -1.75231       -4.17165
F          0.39049       -1.58439       -4.18323
F          1.86587       -0.93941       -2.68292
F          1.05188       -4.18157       -3.82411
F          0.41424       -3.06932       -2.02823
F          3.66448       -4.17852       -2.91030
F          2.10991       -5.09377       -1.64602
H          0.15648       -0.32421       -0.20069
H          0.62918       -1.56077        1.09967
H          2.32926        0.74412       -0.04282
H          2.91276       -1.53368        2.00294
H          3.20425        0.13751        2.39674
H          5.26719       -0.78072        1.95548
H          4.94244       -2.68823        0.75689
H          6.76359       -2.17399       -0.99816
H          7.04105       -1.89182        0.73727
H          6.62839        0.21226       -1.40870
H          7.44064        0.34478        0.15302
H          4.56920        0.82888       -0.55261
H          6.31630        2.39102        0.64260
H          5.91329        1.50343        2.10428
H          3.42100        2.17315        1.66669
H          4.00284        3.10004        0.28608
H          4.84618       -2.37511       -1.85583
H          3.70197       -1.11846       -1.34051
H          2.24354       -2.77816       -0.27436
H          3.55925       -3.97379       -0.21666
