75

C          1.15609        2.28853      -12.25912
C          2.67508        2.47766      -12.24442
C          3.20256        3.03118      -10.91621
C          4.72456        3.20251      -10.87614
C          5.24027        3.74178       -9.53819
C          6.76410        3.88751       -9.47241
C          7.26617        4.39107       -8.11535
C          8.79176        4.49828       -8.01716
C          9.27898        4.96583       -6.64186
C         10.80429        5.04064       -6.52091
C         11.28114        5.49738       -5.13649
C         12.78560        5.44173       -4.94134
O         13.41240        6.33880       -5.88494
C         14.82728        6.30249       -5.87686
C         15.27907        7.19579       -7.03979
C         15.12618        8.67981       -6.66494
O         15.35448        9.55300       -7.75453
C         14.39122        9.33590       -8.78066
C         14.53107        7.92344       -9.33610
N         14.39856        6.88363       -8.24916
C         14.60899        5.48029       -8.79119
C         13.50608        5.04716       -9.74443
C         14.63514       10.37158       -9.87824
O         13.77242       10.05102      -10.94988
C         13.86893       10.97355      -12.04882
C         12.93814       10.51025      -13.15759
C         13.00620       11.41832      -14.38938
H          0.80791        1.89393      -13.22355
H          0.63273        3.23997      -12.08169
H          0.83384        1.58488      -11.47719
H          2.97148        3.15463      -13.06366
H          3.16857        1.51390      -12.45665
H          2.89121        2.36121      -10.09520
H          2.71951        4.00273      -10.70940
H          5.03965        3.87792      -11.69124
H          5.20563        2.23084      -11.08690
H          4.90655        3.07252       -8.72582
H          4.77047        4.71970       -9.33292
H          7.10264        4.57373      -10.26897
H          7.23216        2.91214       -9.69451
H          6.90203        3.71519       -7.32209
H          6.81630        5.37607       -7.90028
H          9.16104        5.19158       -8.79496
H          9.24012        3.51549       -8.24792
H          8.89108        4.28165       -5.86784
H          8.84506        5.95469       -6.41412
H         11.18944        5.73203       -7.29162
H         11.23884        4.05052       -6.74896
H         10.83233        4.85582       -4.36091
H         10.92734        6.52004       -4.92844
H         13.17194        4.41943       -5.11640
H         13.06749        5.74468       -3.91805
H         15.20278        5.26730       -5.97602
H         15.24541        6.70620       -4.93531
H         16.31534        6.98219       -7.33767
H         15.87753        8.91909       -5.90102
H         14.12254        8.85036       -6.22993
H         13.36850        9.47358       -8.37244
H         15.52573        7.78731       -9.78500
H         13.76388        7.73315      -10.09351
H         13.43904        6.89727       -7.85309
H         14.64141        4.81382       -7.92275
H         15.59891        5.47800       -9.26666
H         12.51620        5.10876       -9.27016
H         13.67346        3.99591      -10.01103
H         13.49249        5.62085      -10.67868
H         15.70033       10.33635      -10.18461
H         14.43626       11.38019       -9.47062
H         14.91718       11.01199      -12.40398
H         13.59613       11.98827      -11.70064
H         11.90972       10.47546      -12.76541
H         13.20740        9.47817      -13.43467
H         12.73049       12.45421      -14.14455
H         12.31619       11.06926      -15.16782
H         14.01569       11.43462      -14.82480
