58

N          2.65981       -2.32587       -0.54702
C          2.57440       -1.08288        0.23517
C          3.51344       -1.11154        1.44808
C          4.97998       -1.20614        1.03739
C          5.45538       -2.58459        0.54328
N          6.86533       -2.60131        0.98019
C          7.02219       -1.74251        2.00536
N          8.13575       -1.67344        2.75098
C          9.31947       -2.52655        2.55436
C          9.03313       -4.01429        2.63714
C          9.52419       -4.86888        1.64000
C          9.29601       -6.24697        1.71340
C          8.56755       -6.77765        2.77950
C          8.07083       -5.92936        3.77574
C          8.30342       -4.55553        3.70701
N          5.93587       -0.96569        2.17364
C          5.89723        0.19065        3.06139
C          6.53522        1.49088        2.51603
P          5.41804        2.46658        1.44458
O          4.92883        1.74991        0.24462
O          4.16897        2.88450        2.36625
C          4.25639        3.83023        3.47521
C          3.95932        3.13111        4.78848
O          6.31489        3.77012        1.22038
C          5.89511        4.77628        0.22741
C          6.58766        4.54631       -1.10038
H          2.25788       -2.18928       -1.47424
H          2.11180       -3.06724       -0.10747
H          1.55492       -0.85101        0.59296
H          2.87851       -0.24818       -0.41341
H          3.25399       -1.93941        2.12977
H          3.34883       -0.17195        1.99612
H          5.17746       -0.43377        0.27722
H          5.36664       -2.68575       -0.54070
H          4.89761       -3.40561        1.02165
H          7.41835       -3.45659        0.95597
H          8.19615       -0.92870        3.43332
H         10.03203       -2.23002        3.33666
H          9.78896       -2.28912        1.58631
H         10.09984       -4.45709        0.80747
H          9.68875       -6.90297        0.93607
H          8.38781       -7.85121        2.83757
H          7.50690       -6.34248        4.61256
H          7.91707       -3.90057        4.49074
H          6.38651       -0.09565        4.00551
H          4.84680        0.36150        3.32991
H          7.44799        1.27852        1.94071
H          6.83406        2.12786        3.36233
H          3.50721        4.60463        3.26104
H          5.24690        4.30989        3.47590
H          2.98398        2.62852        4.75172
H          3.93189        3.86702        5.60398
H          4.72845        2.38633        5.03805
H          6.17430        5.73716        0.67819
H          4.80010        4.74365        0.12514
H          7.67892        4.56109       -0.98080
H          6.31034        5.34800       -1.79911
H          6.28743        3.58683       -1.53963
