92

C         -2.10628        0.66386        1.18471
C         -1.79348       -0.25181        0.00085
C         -0.30310       -0.55307       -0.16638
C          0.03401       -1.39661       -1.40301
N         -0.31083       -0.74169       -2.68672
C          0.50838        0.21060       -3.18469
S          1.94143        0.70232       -2.49777
S         -0.10453        0.92831       -4.74217
C          1.12379        2.22466       -5.07091
C          0.95727        3.51903       -4.27280
C         -0.28590        4.36998       -4.58994
P         -1.92146        3.71643       -4.11627
C         -2.00755        3.13057       -2.39163
C         -3.44124        2.78373       -1.93552
C         -4.09547        1.66887       -2.76729
S         -5.90103        1.75040       -2.78074
C         -6.34552        0.18541       -1.97999
S         -5.25663       -0.84075       -1.27067
N         -7.68684       -0.03235       -2.03977
C         -8.27862       -1.24964       -1.52130
C         -9.05924       -1.18757       -0.36542
C         -9.67385       -2.34854        0.10918
C         -9.51074       -3.55808       -0.57072
C         -8.73177       -3.60858       -1.73102
C         -8.11411       -2.45396       -2.21188
C         -8.60252        0.90476       -2.65254
C         -9.14718        0.60730       -3.90749
C        -10.05686        1.49049       -4.48913
C        -10.42537        2.66136       -3.81789
C         -9.88768        2.94687       -2.56022
C         -8.97796        2.06712       -1.96955
C         -3.17461        5.02392       -4.38031
C         -3.36133        5.51448       -5.83154
C         -3.67240        4.42712       -6.87551
C         -4.97830        3.65238       -6.60155
S         -4.77092        1.92712       -7.10769
O         -4.61049        1.84309       -8.53793
O         -3.79965        1.31357       -6.21753
Cl        -6.62763        1.15916       -6.61525
C         -1.51127       -1.22385       -3.40074
C         -1.25208       -2.31632       -4.44933
C         -0.73491       -3.65274       -3.90553
C         -0.58264       -4.70922       -5.00296
H         -3.18702        0.84553        1.26767
H         -1.60152        1.63793        1.08446
H         -1.77167        0.22301        2.13487
H         -2.17724        0.21027       -0.92197
H         -2.35486       -1.19419        0.10796
H          0.07156       -1.10566        0.71087
H          0.27698        0.38193       -0.20474
H         -0.51748       -2.34486       -1.37885
H          1.10881       -1.62201       -1.42256
H          1.04861        2.39366       -6.15616
H          2.10829        1.78688       -4.84979
H          1.83062        4.15613       -4.48639
H          1.01475        3.28751       -3.19966
H         -0.35606        4.58931       -5.66852
H         -0.21373        5.34230       -4.07569
H         -2.25302        2.64680       -4.97139
H         -1.57331        3.92652       -1.76643
H         -1.33133        2.26387       -2.33184
H         -4.06065        3.69278       -1.94480
H         -3.39152        2.47247       -0.88237
H         -3.85773        0.66871       -2.35608
H         -3.78898        1.68175       -3.82243
H         -9.18082       -0.23951        0.15881
H        -10.28008       -2.30535        1.01442
H         -9.99250       -4.46204       -0.19722
H         -8.60481       -4.55048       -2.26546
H         -7.49718       -2.48176       -3.11027
H         -8.86005       -0.31482       -4.41325
H        -10.48509        1.25969       -5.46496
H        -11.14398        3.34506       -4.27087
H        -10.18684        3.85072       -2.02870
H         -8.55843        2.27254       -0.98444
H         -2.89922        5.86459       -3.72472
H         -4.11440        4.61872       -3.97528
H         -2.46226        6.05692       -6.15964
H         -4.16996        6.26085       -5.81641
H         -2.82606        3.72525       -6.94043
H         -3.73742        4.89312       -7.86665
H         -5.83570        4.04588       -7.16068
H         -5.24955        3.58983       -5.53871
H         -1.99555       -0.36176       -3.88363
H         -2.21557       -1.58319       -2.63829
H         -0.55685       -1.93163       -5.21260
H         -2.21144       -2.47867       -4.96932
H         -1.42475       -4.02430       -3.12861
H          0.23931       -3.50473       -3.41221
H         -1.54078       -4.90621       -5.50596
H         -0.22178       -5.66105       -4.59122
H          0.13609       -4.38696       -5.77023
