78

C          0.02529       -0.64117       -2.13944
O          1.41582       -0.77899       -1.87340
C          2.16498        0.33871       -2.30806
C          3.62102        0.06100       -1.96099
O          4.38732        1.18775       -2.39790
C          5.76196        1.07291       -2.11490
C          6.39784        2.35213       -2.66127
C          7.88248        2.47003       -2.47425
C          8.66602        1.47652       -1.88207
C         10.04228        1.62113       -1.74648
C         10.69110        2.77532       -2.21170
C          9.88481        3.72924       -2.81399
N          8.53544        3.58697       -2.92867
C          7.81029        4.72211       -3.55222
C          7.32629        5.78330       -2.53850
O          8.32801        6.24563       -1.60114
C          9.46777        6.85499       -2.06039
O          9.75292        6.93651       -3.23952
C         10.31802        7.36588       -0.92279
S         11.02237        6.01463        0.09392
C          6.65668        6.93188       -3.30650
O          5.93985        7.80640       -2.42119
C          4.69438        7.37094       -2.05300
O          4.21382        6.32180       -2.43304
C          4.04105        8.34577       -1.10622
S          4.32947        7.81640        0.62541
C         12.17364        2.99213       -2.01927
C         12.74498        4.26884       -2.64349
C         14.14235        4.62622       -2.11255
P         14.47250        6.41239       -2.31532
O         13.36411        7.23503       -1.77249
O         15.92527        6.65796       -1.67904
C         16.07438        6.96800       -0.25793
C         17.36351        7.73981       -0.07327
O         14.71007        6.66161       -3.87150
C         15.96209        6.39595       -4.57685
C         16.71282        7.69028       -4.82299
H         -0.46125       -1.55079       -1.76943
H         -0.17050       -0.54003       -3.22239
H         -0.40032        0.23562       -1.61834
H          1.83002        1.26798       -1.80602
H          2.06133        0.49239       -3.40053
H          3.96384       -0.86061       -2.46631
H          3.73038       -0.08264       -0.87029
H          6.19175        0.17435       -2.60357
H          5.93446        0.97759       -1.02295
H          5.87755        3.20595       -2.19805
H          6.15665        2.40588       -3.73706
H          8.17832        0.57331       -1.52198
H         10.62170        0.82783       -1.27010
H         10.28180        4.65136       -3.23143
H          6.93218        4.33180       -4.07728
H          8.48856        5.16930       -4.28499
H          6.57745        5.33236       -1.87395
H          9.74630        8.04953       -0.28309
H         11.19441        7.86845       -1.34868
H          9.86905        5.67413        0.71864
H          5.96166        6.51004       -4.04743
H          7.40065        7.56061       -3.80653
H          2.96703        8.40405       -1.31322
H          4.49229        9.34072       -1.19069
H          3.52105        6.73130        0.57191
H         12.71208        2.09878       -2.37657
H         12.34223        3.02429       -0.92851
H         12.08615        5.11282       -2.39682
H         12.76872        4.19007       -3.74167
H         14.94177        4.03545       -2.58402
H         14.19712        4.43801       -1.02771
H         16.09364        6.01629        0.29724
H         15.19915        7.54948        0.06549
H         18.22694        7.15884       -0.42309
H         17.50997        7.96325        0.99252
H         17.33273        8.68973       -0.62237
H         15.66180        5.91830       -5.51961
H         16.57034        5.68207       -4.00178
H         16.08342        8.40521       -5.36843
H         17.60959        7.48967       -5.42631
H         17.02746        8.14765       -3.87664
