41

C          3.13521        0.68816        3.49582
C          3.03463        0.76299        1.96977
C          3.46463       -0.51048        1.21507
C          2.66316       -1.77394        1.60816
P          0.82352       -1.67074        1.59635
Si        -0.44951       -1.11730       -0.29297
C          0.26721       -2.10959       -1.70762
C         -2.15530       -1.68701        0.23200
C         -0.35285        0.74410       -0.47017
C          0.18353       -3.21923        2.28337
C         -0.59317       -3.21722        3.44860
C         -1.10562       -4.43829        3.89899
N         -0.89376       -5.60522        3.27693
C         -0.14593       -5.59355        2.16492
C          0.41231       -4.43343        1.62102
C          3.50085       -0.29016       -0.30138
H          2.89243        1.65699        3.95044
H          4.15307        0.42129        3.81407
H          2.45145       -0.05236        3.93900
H          3.66903        1.58722        1.60993
H          2.00872        1.04483        1.66700
H          4.49471       -0.74605        1.53675
H          2.89310       -2.09197        2.63670
H          2.92081       -2.61821        0.95052
H          0.48138       -0.72406        2.59375
H          0.20552       -3.18885       -1.51508
H          1.30981       -1.84375       -1.92026
H         -0.32275       -1.90402       -2.61334
H         -2.19770       -2.77013        0.40261
H         -2.85801       -1.44412       -0.57976
H         -2.50704       -1.17263        1.13649
H          0.64619        1.10792       -0.73697
H         -0.67878        1.24786        0.44979
H         -1.04428        1.04414       -1.27253
H         -0.79906       -2.29961        4.00154
H         -1.71564       -4.47599        4.80538
H          0.01430       -6.56003        1.68026
H          1.00804       -4.49319        0.70860
H          2.51951        0.00278       -0.70179
H          3.83066       -1.19165       -0.83684
H          4.20007        0.51805       -0.55289
