54

C         12.44963        0.40763       -0.46074
C         11.21632        0.43012       -1.36675
C         10.05565       -0.41152       -0.82342
C          8.82299       -0.40702       -1.73420
C          7.67866       -1.27008       -1.19551
C          6.41270       -1.26057       -2.08557
C          6.67142       -1.66315       -3.49581
N          6.61539       -0.84745       -4.57644
C          6.94771       -1.57485       -5.70096
N          7.21036       -2.81361       -5.34455
N          7.03977       -2.85110       -3.98951
C          7.17861       -4.15034       -3.30766
C          5.83020       -4.69217       -2.83036
O          4.92226       -4.55471       -3.89489
C          3.64623       -5.18397       -3.66782
C          2.84652       -5.06101       -4.95291
O          3.42624       -5.79934       -6.02235
C          6.93646       -1.07435       -7.10541
C          5.57883       -1.31339       -7.81229
C          4.47035       -0.36808       -7.33749
S          2.85481       -0.99084       -7.85896
O          2.77882       -0.98978       -9.30213
O          2.58511       -2.17241       -7.07741
O          1.89041        0.18349       -7.28995
H         13.26106        1.01854       -0.87705
H         12.83508       -0.61482       -0.33500
H         12.21836        0.80013        0.54009
H         11.48961        0.06449       -2.37152
H         10.87645        1.47057       -1.50362
H          9.77070       -0.04330        0.17694
H         10.39550       -1.45184       -0.67762
H          9.12114       -0.76221       -2.73797
H          8.46947        0.63112       -1.86841
H          7.37109       -0.91781       -0.19971
H          8.02445       -2.30575       -1.05143
H          5.97694       -0.25064       -2.10396
H          5.64165       -1.92264       -1.66478
H          6.39321        0.14411       -4.53773
H          7.88654       -4.04882       -2.47537
H          7.61318       -4.80740       -4.06852
H          5.47525       -4.15879       -1.92508
H          5.98208       -5.74963       -2.54068
H          3.12125       -4.68419       -2.83127
H          3.80166       -6.24705       -3.41173
H          2.72101       -3.99673       -5.22036
H          1.84592       -5.48539       -4.78751
H          4.27153       -5.37948       -6.24521
H          7.71990       -1.62028       -7.64740
H          7.21093       -0.00860       -7.12770
H          5.27918       -2.35935       -7.65273
H          5.72542       -1.18494       -8.89274
H          4.58221        0.64500       -7.74740
H          4.39058       -0.30709       -6.24237
H          1.51828        0.65791       -8.05935
