54

C          6.59978       -0.32181        3.84446
C          6.09937       -0.15824        2.75533
C          5.52237        0.05766        1.43598
C          6.40698        0.95944        0.54777
C          5.79176        1.17592       -0.83877
C          6.55284        2.10947       -1.81762
C          5.90072        2.05088       -3.22444
C          4.41005        2.40589       -3.28106
C          3.87942        2.41334       -4.71823
S          2.18685        3.03796       -4.72511
O          1.31357        2.06402       -4.10396
O          2.23156        4.40921       -4.28020
O          1.87447        3.06029       -6.31573
C          8.06134        1.72997       -1.94239
C          8.80970        2.67337       -1.01278
N          8.04497        3.98081       -1.14741
C          6.58455        3.57028       -1.27140
C          8.58563        4.87544       -2.22458
C          9.50438        5.88132       -1.51168
O          9.48963        5.96407       -0.29197
O         10.21197        6.58999       -2.36651
C         11.11312        7.63165       -1.80987
C         12.48946        7.05877       -1.51902
C         13.44005        8.15447       -1.02423
H          7.02001       -0.48392        4.81511
H          4.52097        0.50862        1.54080
H          5.36963       -0.91458        0.93745
H          7.39948        0.48887        0.47182
H          6.54767        1.91580        1.07898
H          4.76903        1.56605       -0.71010
H          5.68008        0.19745       -1.33551
H          6.05342        1.03507       -3.62464
H          6.45850        2.72834       -3.89535
H          4.23337        3.40228       -2.84416
H          3.81715        1.69260       -2.69205
H          3.85694        1.40954       -5.16364
H          4.44966        3.08727       -5.37309
H          1.20192        2.37325       -6.49087
H          8.40049        1.86538       -2.98049
H          8.24944        0.68217       -1.67832
H          9.86438        2.84579       -1.25655
H          8.73287        2.37186        0.03893
H          8.21802        4.55810       -0.29141
H          6.07468        4.29424       -1.91657
H          6.15411        3.64461       -0.26514
H          7.76131        5.41899       -2.70437
H          9.11703        4.29596       -2.98770
H         10.63616        8.04591       -0.91247
H         11.13977        8.38814       -2.60313
H         12.88788        6.59521       -2.43411
H         12.40139        6.26875       -0.75781
H         13.55859        8.95238       -1.77067
H         14.43388        7.73557       -0.82509
H         13.07799        8.61168       -0.09296
