76

C          1.72289        1.39277       -1.52359
C          2.88261        0.71789       -0.78248
C          3.58503       -0.29154       -1.66855
O          4.69324       -0.87810       -0.89045
C          5.32341       -1.91012       -1.44212
O          5.08758       -2.44623       -2.50294
C          6.46613       -2.35780       -0.50564
N          7.06119       -3.59519       -0.99630
C          6.78452       -4.87167       -0.62805
C          5.94103       -5.26881        0.53041
C          5.52072       -6.74693        0.50992
C          4.65608       -7.09651        1.72490
C          4.12254       -8.53317        1.70059
C          3.24838       -8.85874        2.91629
C          2.59467      -10.24404        2.86894
C          1.70800      -10.52201        4.08751
C          0.94957      -11.85197        4.02720
C          0.06931      -12.08997        5.25870
C         -0.78698      -13.35877        5.18276
C         -1.64191      -13.56810        6.43648
C         -2.57971      -14.77681        6.32894
N         -3.39578      -14.96787        7.52547
C         -3.06010      -15.74672        8.60751
C         -4.02809      -15.57444        9.59319
C         -4.97520      -14.65378        9.09112
C         -4.55858      -14.29102        7.81362
N          7.40122       -5.71280       -1.47948
N          8.03575       -5.00587       -2.39052
N          7.82634       -3.71674       -2.12658
C          8.40278       -2.59287       -2.88013
O          8.35609       -1.46960       -2.44334
O          8.91521       -3.07527       -3.98430
C          9.58357       -2.08867       -4.87273
C         10.17597       -2.86407       -6.02349
H          1.22164        2.11918       -0.87235
H          0.96882        0.66166       -1.84786
H          2.07310        1.93269       -2.41482
H          2.51162        0.20806        0.11994
H          3.60991        1.47273       -0.44732
H          4.02156        0.16926       -2.56678
H          2.92371       -1.11039       -1.98496
H          6.08801       -2.55721        0.50371
H          7.22804       -1.57279       -0.45111
H          5.04441       -4.62631        0.55403
H          6.49862       -5.04383        1.45829
H          6.41640       -7.38469        0.48047
H          4.96719       -6.95025       -0.42009
H          3.80122       -6.39906        1.77945
H          5.23831       -6.93477        2.64908
H          4.96703       -9.24146        1.64805
H          3.53864       -8.68702        0.77654
H          2.45552       -8.09466        3.00372
H          3.85356       -8.76973        3.83548
H          3.37398      -11.02191        2.79115
H          1.98941      -10.32831        1.94925
H          0.97825       -9.70005        4.19525
H          2.32633      -10.49457        5.00190
H          1.66552      -12.68486        3.91749
H          0.32170      -11.87081        3.11903
H         -0.59392      -11.21906        5.40260
H          0.70652      -12.13342        6.15907
H         -0.13665      -14.23663        5.02514
H         -1.44088      -13.30242        4.29472
H         -2.24783      -12.66749        6.62894
H         -0.99419      -13.69787        7.31869
H         -2.00707      -15.70122        6.16373
H         -3.25806      -14.66362        5.46966
H         -2.16987      -16.36779        8.58902
H         -4.04428      -16.07312       10.55655
H         -5.87081      -14.29667        9.58856
H         -4.99996      -13.61241        7.09050
H         10.33757       -1.56573       -4.26963
H          8.81489       -1.36989       -5.18663
H         10.91557       -3.59515       -5.67323
H         10.68292       -2.16177       -6.69878
H          9.39988       -3.38812       -6.59498
