42

F          5.26047        0.65372        1.45161
C          4.07431        0.63547        0.70406
C          3.82313       -0.78328        0.20229
C          4.97491       -1.24928       -0.68420
N          4.95679       -2.75242       -0.93050
C          3.77596       -3.23963       -1.76387
C          3.82998       -2.91130       -3.24743
C          2.73061       -3.70917       -3.99406
N          2.90954       -5.15889       -3.95224
C          3.72564       -5.76296       -5.02122
C          5.22211       -5.65904       -4.69476
O          5.45090       -5.94843       -3.31063
O          3.60970       -1.50545       -3.38415
C          6.29651       -3.26463       -1.44042
C          7.29359       -3.42117       -0.29273
C          8.66683       -3.84225       -0.81346
F          8.60593       -5.02263       -1.47374
F          9.16257       -2.91445       -1.67517
F          9.53832       -3.97290        0.20611
H          4.19107        1.35144       -0.12425
H          3.25538        0.96772        1.35709
H          2.86644       -0.78785       -0.33987
H          3.71893       -1.44197        1.08175
H          5.93042       -1.03382       -0.19077
H          4.95498       -0.77448       -1.67131
H          4.81737       -3.18435       -0.00532
H          2.87290       -2.80574       -1.31531
H          3.74592       -4.33013       -1.64700
H          4.81486       -3.19203       -3.65774
H          2.70800       -3.32217       -5.03332
H          1.76107       -3.45360       -3.54013
H          2.00290       -5.61714       -3.91288
H          3.52755       -5.31752       -6.01374
H          3.44647       -6.82490       -5.07046
H          5.61126       -4.65121       -4.93080
H          5.78744       -6.37252       -5.31270
H          4.54930       -6.00822       -2.93375
H          3.58353       -1.28079       -4.32935
H          6.65186       -2.53824       -2.18161
H          6.11740       -4.22723       -1.94589
H          6.96862       -4.19874        0.41489
H          7.44604       -2.48649        0.26475
