59

Br         2.36648        1.20112       -0.50033
C          3.82956       -0.12995       -0.37145
C          3.70709       -0.98736        0.87756
C          2.86405       -2.27335        0.83878
C          1.31551       -2.20849        0.64849
C          0.90053       -2.05947       -0.82705
C         -0.61083       -1.98446       -1.08433
C         -0.98620       -2.41159       -2.50645
C         -2.50725       -2.47384       -2.71902
N         -2.87579       -3.02361       -4.00959
C         -2.90816       -4.36927       -4.31738
C         -3.16922       -4.49661       -5.66875
C         -3.29079       -3.18284       -6.20178
C         -3.09973       -2.29504       -5.15987
C          0.63409       -1.17480        1.59900
N          0.07780       -2.00506        2.67119
C          0.10890       -3.30830        2.33809
N         -0.40337       -4.28030        3.10240
N          0.75522       -3.50834        1.18331
C          1.20023       -4.83244        0.70305
C          0.09642       -5.86590        0.60941
C          0.17326       -7.04386        1.36612
C         -0.83178       -8.01292        1.28085
C         -1.93937       -7.83517        0.44064
C         -2.00367       -6.65277       -0.32125
C         -1.00572       -5.68641       -0.24256
C         -3.02569       -8.87164        0.34425
Br         5.56092       -1.59666        1.29004
H          4.73002        0.48649       -0.34133
H          3.80816       -0.71257       -1.29900
H          3.46221       -0.36005        1.74268
H          3.05316       -2.77902        1.79682
H          3.28007       -2.92699        0.05662
H          1.32749       -2.91268       -1.37977
H          1.38802       -1.16649       -1.23980
H         -0.97437       -0.96006       -0.90175
H         -1.14770       -2.63050       -0.36835
H         -0.56388       -3.40785       -2.71908
H         -0.54195       -1.72863       -3.24697
H         -2.95138       -1.47111       -2.63220
H         -2.97177       -3.09376       -1.93403
H         -2.75242       -5.11935       -3.54748
H         -3.27803       -5.43102       -6.20971
H         -3.51037       -2.91523       -7.23010
H         -3.11734       -1.20999       -5.13490
H         -0.16007       -0.61714        1.08564
H          1.34718       -0.44935        2.00436
H         -0.58771       -1.63806        3.34257
H         -0.92842       -4.05175        3.93699
H         -0.48143       -5.22363        2.72275
H          2.00902       -5.20764        1.35055
H          1.63665       -4.66272       -0.29020
H          1.03685       -7.21894        2.01330
H         -0.74519       -8.92694        1.87125
H         -2.84798       -6.49721       -0.99613
H         -1.07823       -4.79017       -0.85913
H         -2.77224       -9.77804        0.90716
H         -3.20767       -9.15716       -0.70164
H         -3.97621       -8.48268        0.73973
