66

C          1.04224        0.14981        0.19925
C          2.52128       -0.22596        0.08710
C          3.12312       -0.71078        1.41176
C          4.60393       -1.09296        1.29195
C          5.19909       -1.53262        2.61741
O          6.58440       -1.88161        2.40397
C          7.25535       -2.24938        3.58066
C          8.70665       -2.48362        3.15121
C          8.87349       -3.59875        2.10836
N         10.24657       -3.84123        1.70413
C         11.14003       -4.09219        2.82051
C         11.10585       -3.02482        3.93330
N          9.61949       -2.76984        4.37537
C          9.07608       -3.86312        5.26903
O          9.15882       -5.01751        4.98978
C          8.37161       -3.38056        6.58515
C          9.09912       -3.78099        7.93449
C         10.62421       -3.43528        8.07078
C         10.97772       -1.93483        7.83955
O         10.90653       -1.46727        6.72403
O         11.35029       -1.23861        8.90338
F         11.01272       -3.82628        9.31848
F         11.31261       -4.17606        7.15388
F          8.44348       -3.13602        8.93371
F          8.96856       -5.11321        8.09521
F          8.18955       -2.02792        6.57229
F          7.15432       -3.96975        6.60816
C         11.72032       -1.67400        3.55633
C         13.26196       -1.69762        3.65206
C         13.85451       -0.35522        3.28649
C         14.21269       -0.06760        1.96169
C         14.72686        1.18470        1.61813
C         14.88987        2.16691        2.59843
C         14.53701        1.89005        3.92200
C         14.02133        0.63781        4.26231
H          0.64299        0.48701       -0.76645
H          0.88814        0.96309        0.92348
H          0.43496       -0.70666        0.52755
H          3.09756        0.64205       -0.27498
H          2.64610       -1.01215       -0.67630
H          2.54517       -1.57647        1.77887
H          3.00472        0.07948        2.17350
H          5.18317       -0.23707        0.90973
H          4.72332       -1.90870        0.56078
H          4.66409       -2.41082        3.02548
H          5.14320       -0.72152        3.36835
H          6.81809       -3.17315        4.02164
H          7.18983       -1.44961        4.34461
H          9.10702       -1.53976        2.75311
H          8.27408       -3.30439        1.23818
H          8.43414       -4.53692        2.48727
H         10.59404       -3.12026        1.07379
H         12.17436       -4.14907        2.45409
H         10.90656       -5.07784        3.24715
H         11.58696       -3.40738        4.84288
H          9.66408       -1.91674        4.95775
H         11.38048       -1.80506        9.70181
H         11.35604       -0.88432        4.23222
H         11.42702       -1.37973        2.53705
H         13.66952       -2.47458        2.98731
H         13.55201       -1.96998        4.67909
H         14.10219       -0.83543        1.19202
H         15.00938        1.39008        0.58520
H         15.29908        3.14204        2.33299
H         14.67178        2.64903        4.69335
H         13.75527        0.42535        5.30074
