67

C          7.70798       -1.52801       -3.87381
C          6.45137       -1.58983       -3.00185
C          5.88840       -3.00951       -2.86890
C          4.63946       -3.04933       -1.98109
N          4.09913       -4.40975       -1.81175
C          3.16393       -4.89865       -2.64761
S          2.53567       -4.02782       -3.94547
S          2.69155       -6.58861       -2.26218
C          1.32275       -6.87592       -3.40758
C         -0.04035       -6.43568       -2.84835
C         -1.10718       -6.25363       -3.94942
C         -0.83267       -4.97117       -4.72572
C         -1.17890       -3.65075       -4.01293
O         -1.67896       -2.75846       -5.04123
C         -1.42956       -3.30627       -6.29261
N         -1.56099       -4.81775       -6.06327
C         -2.99489       -5.28170       -6.13524
C         -3.44096       -5.48413       -7.58159
C         -4.97559       -5.64239       -7.67501
C         -5.67692       -4.45162       -7.21198
C         -6.21108       -3.44242       -6.81170
C         -0.03270       -2.98474       -6.88627
C          0.27889       -3.88689       -7.98359
C          0.45782       -4.72093       -8.84411
C          4.65475       -5.18119       -0.68546
C          3.87873       -4.99365        0.62468
C          4.47843       -5.81549        1.77113
C          3.70021       -5.66589        3.08058
H          8.08742       -0.50056       -3.95320
H          7.50543       -1.88844       -4.89297
H          8.51500       -2.14850       -3.45722
H          5.67443       -0.93047       -3.42371
H          6.67808       -1.18999       -1.99887
H          6.66131       -3.67683       -2.45184
H          5.62963       -3.40721       -3.86270
H          3.84498       -2.42401       -2.40822
H          4.86927       -2.67158       -0.97321
H          1.34356       -7.95683       -3.60756
H          1.59273       -6.34232       -4.33194
H          0.08066       -5.49705       -2.28811
H         -0.39857       -7.17990       -2.12409
H         -2.10789       -6.22536       -3.49292
H         -1.07980       -7.12378       -4.62657
H          0.23646       -4.94393       -4.99125
H         -0.28203       -3.22955       -3.53665
H         -1.98025       -3.76123       -3.26867
H         -2.22256       -2.98797       -6.98302
H         -1.00918       -5.28829       -6.80424
H         -3.60499       -4.52143       -5.62744
H         -3.06863       -6.21846       -5.57052
H         -2.95528       -6.37657       -8.00553
H         -3.14284       -4.62671       -8.20388
H         -5.30545       -6.51967       -7.09340
H         -5.24709       -5.85106       -8.72125
H         -6.71874       -2.56171       -6.47611
H          0.74250       -3.04401       -6.10505
H         -0.05883       -1.93843       -7.22539
H          0.66668       -5.41019       -9.63742
H          5.69888       -4.85741       -0.56341
H          4.69832       -6.24464       -0.96433
H          2.82864       -5.28582        0.46564
H          3.87028       -3.92478        0.89463
H          5.52833       -5.51646        1.92760
H          4.50606       -6.87856        1.47829
H          3.68840       -4.62088        3.42326
H          4.14722       -6.27175        3.87976
H          2.65539       -5.98928        2.96346
