42

C          3.30254        1.69422       -0.55522
C          2.67088        0.92921        0.61030
C          3.33382       -0.42234        0.91750
C          4.80856       -0.36048        1.32083
S          5.06979        0.53042        2.90332
C          4.64040       -0.75166        4.13916
C          4.69707       -0.24950        5.59128
C          3.74950        0.93713        5.87577
C          2.25665        0.67499        5.65403
C          4.43522       -1.45401        6.51155
C          6.89107        0.58547        3.00919
C          7.47831        1.70530        2.14875
C          9.02492        1.65521        2.17168
C          9.55235        0.39242        1.67005
C          9.96025       -0.66817        1.25358
H          2.73527        2.60838       -0.77008
H          3.31186        1.08777       -1.47252
H          4.33760        2.00564       -0.34906
H          1.61309        0.73096        0.38437
H          2.66566        1.56028        1.51488
H          3.30376       -1.05897        0.01762
H          2.75643       -0.96675        1.68077
H          5.40419        0.20673        0.59186
H          5.25922       -1.35565        1.44295
H          5.31988       -1.59868        3.96391
H          3.62019       -1.05733        3.86335
H          5.72555        0.09528        5.79470
H          4.06014        1.80669        5.27224
H          3.91360        1.23525        6.92222
H          2.01654        0.43937        4.60581
H          1.67547        1.56831        5.91534
H          1.88317       -0.14817        6.27714
H          3.44484       -1.89561        6.33490
H          4.47894       -1.13702        7.56170
H          5.18631       -2.24261        6.36816
H          7.27610       -0.40301        2.71563
H          7.10304        0.74761        4.07630
H          7.14151        2.68494        2.51626
H          7.14376        1.60777        1.10549
H          9.39070        1.83112        3.19699
H          9.40800        2.48807        1.56178
H         10.36235       -1.58765        0.88034
