55

O          1.93048        0.64956        0.00778
C          3.15015       -0.01566       -0.32466
C          2.88437       -1.01930       -1.44648
C          2.28130       -0.42652       -2.70481
C          1.69033       -1.32340       -3.64840
C          1.17173       -0.88738       -4.84259
C          1.20923        0.49957       -5.15348
C          1.77059        1.42154       -4.20634
C          2.30239        0.93002       -2.99382
C          1.74617        2.79533       -4.54532
C          1.23429        3.26155       -5.73768
N          0.73989        2.32623       -6.64502
C          0.72319        1.01145       -6.35748
C          0.30828        2.73579       -8.00746
C          1.48636        2.79531       -8.98764
C          1.01897        3.27439      -10.36786
C          2.18891        3.37800      -11.35125
S          1.55858        3.87591      -12.97853
O          0.80227        2.78312      -13.54361
O          1.00666        5.20705      -12.87753
Cl         3.34537        4.01458      -14.02998
C          1.13365        4.72672       -6.04663
C         -0.26043        5.35336       -5.73801
C         -0.56316        5.35699       -4.23552
C         -0.32121        6.76494       -6.33423
C          4.18675       -1.77626       -1.78994
H          2.04438        1.09895        0.85884
H          3.55002       -0.57038        0.54072
H          3.93159        0.70771       -0.63337
H          2.15154       -1.75042       -1.06186
H          1.65091       -2.38662       -3.40522
H          0.72922       -1.59059       -5.54954
H          2.70701        1.64171       -2.27517
H          2.13677        3.52814       -3.83911
H          0.31184        0.36050       -7.12912
H         -0.20023        3.70298       -7.93199
H         -0.43919        2.00321       -8.33844
H          1.94498        1.79655       -9.06272
H          2.26354        3.46976       -8.59481
H          0.53504        4.25921      -10.27913
H          0.26356        2.58082      -10.76871
H          2.70101        2.41931      -11.50972
H          2.92047        4.14482      -11.06240
H          1.39920        4.92790       -7.09405
H          1.89039        5.24641       -5.44114
H         -1.03356        4.73954       -6.23452
H          0.17765        5.95712       -3.68493
H         -0.56926        4.34599       -3.80492
H         -1.55060        5.79757       -4.04528
H          0.45236        7.41406       -5.89733
H         -1.29522        7.23050       -6.13432
H         -0.17429        6.75402       -7.42375
H          4.94993       -1.08675       -2.17777
H          4.01789       -2.55105       -2.54828
H          4.58843       -2.26789       -0.89415
