74

C         11.54542        6.92284        3.27860
C         11.69921        5.68961        2.38485
C         11.65583        4.37019        3.16334
C         11.83364        3.12708        2.28570
C         11.81922        1.81700        3.07922
C         12.05678        0.56828        2.22375
C         12.10074       -0.72211        3.04720
C         12.40908       -1.97930        2.22714
C         12.57553       -3.22391        3.10672
C         12.94408       -4.47393        2.31088
O         13.40058       -5.56625        3.13096
C         12.36333       -6.21474        3.86313
C         12.99183       -7.35374        4.63557
C         12.86869       -8.69610        4.13758
C         12.19758       -9.01719        2.82515
C         13.07709       -8.68579        1.59389
C         14.44316       -9.40772        1.58143
C         14.34077      -10.85792        1.69097
C         14.21652      -12.05798        1.79773
C         13.42964       -9.75032        4.84588
C         14.16243       -9.52909        6.02022
C         14.31934       -8.17996        6.50152
C         13.71094       -7.08284        5.80402
C         13.86734       -5.67426        6.33346
C         15.16717       -4.96558        5.91278
C         15.15118       -3.49468        6.32493
O         16.44554       -2.99002        5.98380
O         16.27761       -5.61987        6.54210
C         15.10564       -7.99381        7.64747
N         15.66824       -9.04085        8.26718
C         15.52956      -10.34174        7.84605
C         14.78233      -10.59468        6.73210
H         11.58174        7.85223        2.69404
H         12.34727        6.97281        4.03058
H         10.58732        6.90807        3.81942
H         12.65153        5.75160        1.83124
H         10.90538        5.68613        1.61893
H         10.69796        4.30012        3.70884
H         12.44246        4.38168        3.93902
H         12.78618        3.20599        1.73243
H         11.04047        3.10148        1.51823
H         10.85562        1.72007        3.60990
H         12.59231        1.86502        3.86704
H         13.00770        0.67986        1.67377
H         11.26951        0.49031        1.45409
H         11.14065       -0.85505        3.57610
H         12.86693       -0.61516        3.83649
H         13.33602       -1.81972        1.64955
H         11.61067       -2.14515        1.48392
H         11.65053       -3.38783        3.68479
H         13.38106       -3.03981        3.83681
H         13.79408       -4.26194        1.64622
H         12.09929       -4.81083        1.68005
H         11.58383       -6.58178        3.17548
H         11.85975       -5.51858        4.55790
H         11.24045       -8.48624        2.72884
H         11.96415      -10.09081        2.80937
H         13.26637       -7.60452        1.53960
H         12.50922       -8.96882        0.69615
H         15.07858       -9.02633        2.39850
H         14.96968       -9.15191        0.64850
H         14.12964      -13.12323        1.84842
H         13.33384      -10.76614        4.46042
H         13.80313       -5.66639        7.43236
H         13.03235       -5.05767        5.97889
H         15.26844       -5.02874        4.81539
H         14.96524       -3.41223        7.41146
H         14.35354       -2.95619        5.78333
H         16.56598       -2.11310        6.37777
H         17.02981       -5.00756        6.43589
H         15.33891       -7.01285        8.05317
H         16.24348       -8.85838        9.08766
H         16.03944      -11.09907        8.43590
H         14.67209      -11.61996        6.38088
