82

C          0.94496       -0.49240       -1.06653
C          2.36932       -0.26644       -0.55366
C          3.14222        0.78717       -1.35512
C          4.56636        1.02828       -0.84358
C          5.33535        2.07483       -1.65665
C          6.73015        2.38268       -1.09930
C          7.48165        3.42948       -1.93166
C          8.82494        3.80422       -1.33106
O          9.45063        4.78220       -2.19904
C         10.58906        5.37476       -1.62505
N         11.21665        6.30492       -2.57705
C         10.48499        7.20911       -3.28043
N          9.16654        7.30015       -3.06263
C          8.18937        7.91022       -3.98424
C          8.87677        8.71749       -5.08380
C         10.20766        9.23006       -4.53708
N         11.08028        8.10522       -4.13121
C         12.07225        7.66273       -5.11322
C         11.57724        6.50626       -5.99241
O         10.50657        5.94817       -5.84518
O         12.51290        6.20804       -6.89417
C         12.26334        5.04737       -7.75551
C         13.59565        4.60136       -8.32283
C         13.44765        3.36944       -9.22383
C         14.79095        2.83885       -9.73611
C         14.64825        1.62080      -10.65052
C         12.66371        6.46060       -2.36593
C         13.53393        5.49874       -3.16269
C         14.91673        5.72025       -3.20022
C         15.73873        4.85261       -3.92084
C         15.19128        3.75880       -4.59338
C         13.81078        3.51316       -4.55872
C         12.99340        4.40104       -3.84320
C         13.22061        2.31394       -5.25472
H          0.41590       -1.24524       -0.46684
H          0.94627       -0.84103       -2.10997
H          0.35468        0.43531       -1.02990
H          2.92533       -1.21891       -0.57572
H          2.33575        0.03849        0.50606
H          2.58336        1.73981       -1.33588
H          3.17994        0.48226       -2.41605
H          5.12559        0.07652       -0.84965
H          4.52390        1.34644        0.21302
H          4.74820        3.00931       -1.69362
H          5.42601        1.73312       -2.70225
H          7.32233        1.45295       -1.05190
H          6.63370        2.73686       -0.05837
H          6.86670        4.34159       -2.01737
H          7.63992        3.05739       -2.95646
H          9.49320        2.92865       -1.24548
H          8.70012        4.23910       -0.32182
H         11.35242        4.61755       -1.37756
H         10.31961        5.91791       -0.69190
H          8.79444        6.54390       -2.48302
H          7.53547        8.55103       -3.37538
H          7.57300        7.10527       -4.41031
H          8.23579        9.55482       -5.38795
H          9.05644        8.09186       -5.96641
H         10.04864        9.87269       -3.65747
H         10.75730        9.81897       -5.27891
H         13.01433        7.34047       -4.65269
H         12.32580        8.52217       -5.74543
H         11.55601        5.35781       -8.53921
H         11.78232        4.26968       -7.14731
H         14.28011        4.38241       -7.48788
H         14.04796        5.42995       -8.89039
H         12.79919        3.61393      -10.08262
H         12.92611        2.56653       -8.67309
H         15.43069        2.58370       -8.87389
H         15.31732        3.64564      -10.27275
H         14.15574        0.78470      -10.13204
H         15.62717        1.26467      -10.99762
H         14.04668        1.85708      -11.54059
H         12.84586        6.31720       -1.28738
H         12.93219        7.50575       -2.56945
H         15.35211        6.57329       -2.67483
H         16.81360        5.03195       -3.95819
H         15.84510        3.08435       -5.14953
H         11.91389        4.23686       -3.84387
H         13.63117        2.19125       -6.26612
H         12.12823        2.38724       -5.33221
H         13.45193        1.39013       -4.70365
