75

C         16.42346        6.09793       -1.59386
C         15.30017        5.11784       -1.24719
C         15.65440        3.65619       -1.54373
C         14.55295        2.66655       -1.15107
C         14.90846        1.20445       -1.43891
C         13.83748        0.21172       -0.97474
C         14.19975       -1.25049       -1.25187
C         13.19314       -2.24876       -0.66888
C         13.57010       -3.70833       -0.95301
C         12.65686       -4.69318       -0.24631
O         13.08148       -6.02910       -0.60319
C         12.40003       -7.04364        0.10319
C         12.88007       -8.36370       -0.41049
N         12.07800       -9.39196       -0.72183
N         12.84002      -10.37511       -1.17102
N         14.08922       -9.97365       -1.15307
N         14.16245       -8.70999       -0.66455
C         15.41585       -7.91065       -0.55530
C         16.11700       -7.75533       -1.88184
C         15.44020       -7.23013       -2.99406
C         16.09782       -7.10765       -4.21517
C         17.44489       -7.48793       -4.36206
C         18.11319       -7.99285       -3.23684
C         17.45896       -8.13144       -2.01143
C         18.14720       -7.33612       -5.68447
C         15.20783      -10.83882       -1.58045
C         16.05752      -11.35570       -0.41493
C         15.25250      -12.03906        0.69117
C         16.13176      -12.63883        1.79320
C         15.31185      -13.08068        3.01269
N         14.64819      -11.92342        3.63707
H         16.13166        7.13598       -1.38363
H         16.69261        6.03840       -2.65914
H         17.33282        5.88478       -1.01199
H         14.38761        5.38917       -1.80466
H         15.04085        5.21746       -0.17942
H         16.58590        3.39284       -1.01151
H         15.88166        3.54684       -2.61907
H         13.61925        2.92701       -1.67983
H         14.33097        2.78044       -0.07523
H         15.86527        0.95930       -0.94442
H         15.08701        1.07564       -2.52107
H         12.87588        0.45049       -1.46175
H         13.66797        0.34471        0.10843
H         15.19919       -1.46304       -0.83278
H         14.28812       -1.40900       -2.34084
H         12.18759       -2.04120       -1.07265
H         13.12273       -2.09128        0.42142
H         14.60780       -3.89424       -0.62965
H         13.53685       -3.90316       -2.03705
H         11.60172       -4.55920       -0.54682
H         12.71687       -4.57424        0.85179
H         11.30641       -7.01958       -0.05280
H         12.58118       -6.98038        1.19671
H         16.05292       -8.39967        0.19239
H         15.07017       -6.94621       -0.16168
H         14.40091       -6.90870       -2.90251
H         15.55905       -6.70247       -5.07376
H         19.16038       -8.28802       -3.32100
H         18.00040       -8.53327       -1.15202
H         17.53479       -7.72569       -6.50916
H         19.11138       -7.85822       -5.69376
H         18.33976       -6.27433       -5.90116
H         15.79670      -10.26937       -2.31114
H         14.69059      -11.65913       -2.09379
H         16.67143      -10.54208        0.00219
H         16.77388      -12.05879       -0.87026
H         14.61707      -12.82828        0.25494
H         14.56832      -11.31943        1.17074
H         16.87939      -11.89360        2.11929
H         16.70266      -13.49769        1.40592
H         15.96737      -13.64045        3.70392
H         14.52780      -13.78255        2.68806
H         15.30311      -11.42390        4.24079
H         13.88614      -12.23126        4.24084
