38

C          3.12050       -2.71659       -1.95048
C          3.47645       -1.65844       -0.90324
C          4.35252       -2.22243        0.22516
C          4.70164       -1.15924        1.25321
O          5.43641       -1.75905        2.39173
C          6.75287       -1.86273        2.27618
O          7.45134       -1.43052        1.37603
C          7.31631       -2.69041        3.44124
N          8.65584       -2.26644        3.85146
C          9.00690       -1.79685        5.08312
N         10.32977       -1.68139        5.04506
N         10.88152       -2.02558        3.85174
C          9.83912       -2.38617        3.11580
N          9.87618       -2.88275        1.85769
C          8.13567       -1.51522        6.25713
C          7.97350       -2.72871        7.20334
C          9.26436       -3.34362        7.72213
Br        10.54535       -2.04207        8.45392
Br         6.79940       -2.16841        8.67355
H          2.50191       -2.28758       -2.74899
H          2.55662       -3.54797       -1.50306
H          4.02193       -3.13804       -2.41845
H          2.55280       -1.23815       -0.47314
H          3.99948       -0.81802       -1.38814
H          5.27958       -2.63789       -0.20204
H          3.82656       -3.04977        0.72854
H          3.81030       -0.73294        1.72857
H          5.32150       -0.35590        0.83462
H          7.37585       -3.73882        3.10613
H          6.64547       -2.64870        4.30466
H         10.92124       -1.40998        5.83591
H         10.80838       -2.91777        1.45314
H          9.15011       -2.51013        1.23857
H          7.14619       -1.17874        5.92181
H          8.57944       -0.68464        6.82382
H          7.41369       -3.53385        6.70447
H          9.80407       -3.85920        6.91684
H          9.06637       -4.05293        8.53038
