36

C          4.66058        9.58701        1.65624
C          5.50324        8.47527        1.03742
S          5.61296        7.10986        2.26811
C          6.65452        6.02735        1.45615
N          7.25390        6.14006        0.26847
N          7.99137        5.01155        0.09081
C          7.78847        4.25673        1.15139
O          6.95571        4.83931        2.07357
S          8.45709        2.72300        1.53808
C          9.22751        2.28620       -0.07677
C          9.88804        0.91282        0.01885
C         10.52529        0.53558       -1.32764
C         11.19458       -0.84840       -1.26606
N         11.82981       -1.21761       -2.52298
C         11.20617       -1.82716       -3.58876
C         12.12266       -1.93122       -4.63415
C         13.33269       -1.36199       -4.18837
C         13.12690       -0.92398       -2.88108
Br        10.38075        3.11502        2.87843
H          4.56207       10.39933        0.92421
H          5.12917       10.00252        2.55804
H          3.64894        9.24408        1.91155
H          6.52600        8.79998        0.81120
H          5.04874        8.06118        0.12884
H          9.92489        3.09485       -0.32993
H          8.38607        2.30207       -0.78526
H          9.14059        0.15609        0.30713
H         10.65971        0.92330        0.80384
H         11.27958        1.28621       -1.61137
H          9.76522        0.53281       -2.12480
H         10.45577       -1.62373       -1.01515
H         11.96223       -0.86984       -0.47885
H         10.17213       -2.15101       -3.51999
H         11.92751       -2.38499       -5.60002
H         14.26423       -1.28624       -4.73905
H         13.80333       -0.44279       -2.18142
