56

C          6.91806        5.04555        8.93096
C          6.09873        4.17572        7.97419
C          6.15374        2.68447        8.32704
C          5.30454        1.78474        7.41922
N          5.72894        1.82004        6.01330
C          6.65199        0.97777        5.51102
O          7.20117        0.06634        6.13003
C          6.98413        1.18212        4.01075
N          8.42233        1.04526        3.81229
N          9.19072        2.16604        3.76278
C         10.43109        1.71889        3.71165
N         10.44555        0.34812        3.73867
C          9.17598       -0.07187        3.81211
C          8.74661       -1.49519        3.89121
C          9.92275       -2.48485        3.74423
O         11.10279       -2.07818        3.66405
N          9.61709       -3.79511        3.71999
C          8.25361       -4.33746        3.83232
C          7.58923       -4.58919        2.47742
C         10.72008       -4.77054        3.58467
C         11.28785       -5.20462        4.93577
C         11.63136        2.61673        3.64431
O         11.54031        3.82067        3.61617
O         12.74559        1.86803        3.63686
C         14.02324        2.60487        3.58385
C         14.44120        2.86842        2.15018
H          6.86585        6.10541        8.64939
H          7.97806        4.75260        8.92783
H          6.55217        4.95680        9.96384
H          6.46996        4.33057        6.94635
H          5.04789        4.51271        7.97701
H          5.79720        2.53451        9.35904
H          7.19613        2.32715        8.30692
H          4.24755        2.08692        7.44637
H          5.36893        0.73907        7.74501
H          5.41555        2.59620        5.43961
H          6.71081        2.16813        3.61877
H          6.46539        0.40931        3.42651
H         11.16989       -0.42437        3.69426
H          7.97896       -1.68550        3.12494
H          8.24888       -1.62386        4.86745
H          7.64299       -3.66925        4.45319
H          8.33345       -5.27605        4.39828
H          7.46160       -3.65905        1.90596
H          6.59739       -5.03679        2.62332
H          8.18218       -5.27922        1.86293
H         11.49871       -4.30709        2.96821
H         10.31865       -5.63032        3.03120
H         11.72225       -4.35030        5.47000
H         12.08037       -5.94871        4.78167
H         10.51927       -5.66294        5.57323
H         14.72001        1.93801        4.10416
H         13.89822        3.53321        4.15516
H         14.52642        1.93337        1.58164
H         15.42597        3.35561        2.15134
H         13.73580        3.53837        1.64257
