65

C          0.89736        0.15703       -0.88981
C          2.42394        0.06259       -0.82596
C          2.95055       -0.26991        0.57454
C          4.47717       -0.37665        0.65348
C          4.98609       -0.75885        2.04743
C          6.51079       -0.88797        2.13656
C          6.99477       -1.35597        3.51355
C          8.51553       -1.50867        3.60639
C          8.95683       -2.07762        4.97680
C         10.45070       -2.22247        5.08997
N         11.19633       -1.22382        5.71688
C         12.53745       -1.24647        5.68516
C         13.26557       -2.27532        5.08478
C         12.54195       -3.36782        4.50673
C         11.11283       -3.30586        4.50838
C         10.32425       -4.45706        3.93865
C         10.08899       -5.56246        5.00182
O          9.49579       -6.72085        4.44518
C         13.29430       -4.43853        3.95609
C         14.67521       -4.40482        3.97344
C         15.38074       -3.31142        4.53559
C         14.68797       -2.25826        5.08655
C         10.60338       -0.10955        6.56136
C          9.83465        0.92942        5.74272
O         10.67292        1.32180        4.66211
C          9.86217       -0.63492        7.80851
C          9.96407        0.33475        8.99226
H          0.55041        0.38881       -1.90590
H          0.51689        0.94437       -0.22228
H          0.42517       -0.78910       -0.58613
H          2.86763        1.01382       -1.16559
H          2.77603       -0.70464       -1.53624
H          2.50213       -1.22086        0.91299
H          2.60003        0.49734        1.28741
H          4.92954        0.58218        0.34510
H          4.82833       -1.12509       -0.07853
H          4.52443       -1.71529        2.34964
H          4.63873       -0.01179        2.78242
H          6.98005        0.07977        1.88745
H          6.86219       -1.59990        1.36933
H          6.51752       -2.32215        3.75470
H          6.64535       -0.64973        4.28788
H          9.01477       -0.54276        3.43084
H          8.87146       -2.17100        2.80130
H          8.49170       -3.06057        5.12904
H          8.55639       -1.44906        5.77607
H         13.04552       -0.41886        6.17613
H         10.85294       -4.90593        3.08866
H          9.35591       -4.12404        3.54821
H          9.49444       -5.15549        5.84034
H         11.05320       -5.88739        5.41983
H          8.55054       -6.56270        4.29647
H         12.78988       -5.29542        3.51356
H         15.23614       -5.23592        3.54476
H         16.47048       -3.31222        4.53198
H         15.21245       -1.41057        5.52975
H         11.50205        0.41086        6.91847
H          9.62606        1.77031        6.42644
H          8.86485        0.54563        5.38746
H         10.27897        2.08702        4.21590
H         10.30009       -1.60433        8.08941
H          8.80282       -0.82685        7.58543
H         11.01010        0.50548        9.28386
H          9.43985       -0.07761        9.86316
H          9.50968        1.30980        8.77093
