64

C          0.67070        5.46631       -3.07732
C          2.19830        5.43505       -3.16911
C          2.88879        5.48892       -1.80162
C          4.41836        5.46117       -1.88675
C          5.10694        5.45171       -0.51804
C          6.63651        5.42068       -0.60909
C          7.32150        5.35216        0.76093
C          8.85127        5.32916        0.65307
C          9.49836        5.20299        2.03671
N         10.97010        5.17090        1.96587
N         11.66921        4.06371        1.90346
N         12.94249        4.38063        1.74594
C         13.03683        5.72189        1.70550
N         11.79298        6.24219        1.83070
C         11.33593        7.64247        1.93261
C         10.77135        7.98299        3.29586
C         11.35916        7.49598        4.46962
C         10.81304        7.85908        5.70269
C          9.70348        8.70285        5.76545
C          9.10411        9.20172        4.59666
C          9.64999        8.81925        3.36315
C          7.91840       10.12666        4.66665
C         14.31810        6.46737        1.56279
C         14.72781        7.21998        2.84178
O         14.56097        6.33101        3.92389
C         15.04569        6.85604        5.17418
C         14.77943        5.82731        6.25421
H          0.20757        5.41751       -4.07200
H          0.31762        6.38831       -2.59202
H          0.28778        4.61759       -2.49147
H          2.54885        6.27912       -3.78692
H          2.51752        4.52133       -3.69842
H          2.54217        4.63963       -1.18678
H          2.56772        6.39943       -1.26539
H          4.76905        6.33122       -2.46908
H          4.73449        4.56972       -2.45639
H          4.75902        4.57656        0.05778
H          4.79211        6.33868        0.05924
H          6.99066        6.31347       -1.15360
H          6.94900        4.55189       -1.21361
H          6.97919        4.45047        1.29655
H          7.00827        6.21291        1.37679
H          9.20111        6.24591        0.15050
H          9.17856        4.48110        0.03168
H          9.23689        4.25271        2.51903
H          9.22332        6.02440        2.71218
H         10.59663        7.81553        1.13864
H         12.22203        8.24429        1.68773
H         12.22559        6.83312        4.43039
H         11.25711        7.47683        6.62254
H          9.28921        8.97594        6.73748
H          9.19070        9.18507        2.44049
H          7.19176        9.78943        5.41752
H          7.40492       10.20510        3.70033
H          8.23552       11.13978        4.95709
H         14.26716        7.16780        0.71537
H         15.07204        5.70689        1.32250
H         14.11820        8.13584        2.98533
H         15.77908        7.54465        2.73454
H         14.53183        7.81174        5.39348
H         16.12606        7.06928        5.08153
H         13.70333        5.63429        6.36390
H         15.16092        6.18777        7.21852
H         15.27847        4.87794        6.02136
