105

C          1.83231        2.28388       -0.22845
C          3.22754        1.65140       -0.20614
C          3.35798        0.63150        0.90922
O          4.72991        0.10824        0.87728
C          5.00154       -0.90035        1.71478
O          4.22926       -1.39579        2.51078
C          6.44503       -1.38743        1.50145
C          6.94394       -2.18148        2.67623
C          6.65633       -3.54088        2.75368
C          5.87125       -4.32358        1.73258
C          5.73547       -5.83122        1.97885
C          4.91431       -6.52222        0.88118
C          4.76352       -8.03201        1.09231
C          3.92597       -8.71078        0.00284
C          3.76150      -10.22063        0.20562
C          2.92149      -10.89341       -0.88522
C          2.73604      -12.40002       -0.67793
C          1.93980      -13.07959       -1.79680
C          1.71168      -14.57703       -1.56690
C          0.96858      -15.27013       -2.71365
C          0.72577      -16.76374       -2.47473
C          0.01206      -17.46652       -3.63493
C         -0.23918      -18.95523       -3.38095
N          7.09459       -4.22942        3.85630
C          7.76920       -3.69848        4.88136
C          8.07292       -2.33564        4.87750
C          7.64816       -1.54921        3.74639
C          7.95097       -0.16234        3.77758
C          8.62423        0.38726        4.84761
C          9.04472       -0.38833        5.96732
C          8.76478       -1.73913        5.96486
C          9.73918        0.25749        7.13751
C          8.72666        1.02350        8.01630
C          9.27575        1.51901        9.36050
C          8.94014        0.64853       10.63345
C          9.44448       -0.84438       10.75620
C         10.97929       -1.22618       10.82322
C         11.94615       -0.64675       11.93354
C         11.67792       -0.87733       13.47538
C         11.60881       -2.33226       14.09590
C         12.84107       -3.29714       13.92597
F         13.98658       -2.68434       14.26474
F         12.65875       -4.35854       14.72973
F         12.93737       -3.73833       12.65710
F         11.43779       -2.13987       15.42826
F         10.51250       -2.96872       13.60793
F         12.67581       -0.21191       14.10943
F         10.49927       -0.28015       13.78991
F         13.17083       -1.16492       11.64914
F         12.00722        0.69666       11.75750
F         11.00959       -2.58161       10.89814
F         11.54465       -0.86913        9.63324
F          8.84291       -1.36690       11.84776
F          8.96478       -1.51974        9.65579
F          9.34691        1.32218       11.73288
F          7.57495        0.55020       10.67442
F         10.62926        1.72053        9.31227
F          8.70350        2.73576        9.63897
H          1.75255        3.01293       -1.04441
H          1.61155        2.81141        0.71076
H          1.04753        1.52898       -0.38118
H          3.99423        2.43006       -0.07253
H          3.43891        1.16010       -1.16865
H          2.66483       -0.21387        0.79030
H          3.18723        1.07465        1.90187
H          7.08954       -0.53128        1.27454
H          6.43784       -2.00048        0.58810
H          6.33380       -4.16212        0.74445
H          4.86770       -3.87102        1.67138
H          5.23545       -6.01959        2.94759
H          6.73278       -6.30643        2.02400
H          5.38908       -6.33254       -0.09663
H          3.91632       -6.05477        0.83275
H          4.30112       -8.21984        2.07734
H          5.76312       -8.49941        1.13071
H          4.38879       -8.52303       -0.98177
H          2.92940       -8.23742       -0.03671
H          3.29923      -10.40823        1.19076
H          4.75762      -10.69553        0.24415
H          3.39247      -10.71553       -1.86799
H          1.93094      -10.40806       -0.93429
H          2.23228      -12.57549        0.28890
H          3.72606      -12.88180       -0.59288
H          2.46611      -12.93363       -2.75667
H          0.96377      -12.57536       -1.90984
H          1.14957      -14.71991       -0.62714
H          2.68555      -15.07482       -1.41284
H          1.54040      -15.13844       -3.64924
H          0.00036      -14.76553       -2.88006
H          0.13498      -16.89459       -1.55075
H          1.69185      -17.26507       -2.28632
H          0.60981      -17.34482       -4.55425
H         -0.94774      -16.95897       -3.83118
H          0.70385      -19.49704       -3.21403
H         -0.74705      -19.42928       -4.23229
H         -0.86879      -19.10862       -2.49181
H          6.86882       -5.22592        3.88035
H          8.04971       -4.37090        5.69125
H          7.64916        0.48327        2.95474
H          8.84742        1.45619        4.83867
H          9.06912       -2.36517        6.80611
H         10.51282        0.95251        6.78111
H         10.25089       -0.51599        7.71892
H          7.83736        0.40909        8.20882
H          8.37732        1.92395        7.49168
