82

C          8.65446       14.55978       -4.84870
C          8.59207       13.24068       -5.62302
C          9.40546       12.11674       -4.97131
C          9.37734       10.79869       -5.75179
C         10.19936        9.68474       -5.09542
C         10.23683        8.38257       -5.90193
C         11.08266        7.28713       -5.24458
C         11.20370        6.00997       -6.08222
C         12.09279        4.94200       -5.43704
C         12.28436        3.69750       -6.30934
C         13.26600        2.68433       -5.71122
C         13.46842        1.42634       -6.55137
O         13.82942        1.68345       -7.93074
C         15.10530        2.30675       -8.10994
C         15.36772        2.55287       -9.60184
C         14.56983        3.76645      -10.19209
C         15.18177        4.20581      -11.44465
C         15.66489        4.53837      -12.50315
C         13.06724        3.43890      -10.40735
C         12.87935        2.15873      -11.21438
N         13.64649        1.04205      -10.57832
C         15.13206        1.32138      -10.49302
C         15.86180        0.03900      -10.07215
C         15.54003       -1.14262      -10.99764
O         14.46454       -1.14860      -11.64669
N         16.42186       -2.15782      -11.06960
C         16.15461       -3.29439      -11.97678
C         15.70005       -4.56788      -11.25353
C         14.36666       -4.44009      -10.50747
C         13.93589       -5.74890       -9.84106
C         17.67031       -2.19173      -10.30466
H          8.06139       15.34421       -5.33850
H          9.68865       14.92693       -4.76853
H          8.26748       14.44152       -3.82556
H          8.95542       13.40029       -6.65261
H          7.54147       12.91871       -5.72115
H          9.03147       11.94390       -3.94661
H         10.45311       12.44737       -4.85593
H          9.75437       10.97465       -6.77504
H          8.33197       10.46307       -5.86967
H          9.79862        9.47986       -4.08723
H         11.23309       10.04142       -4.94036
H         10.63461        8.59313       -6.91082
H          9.20788        8.01233       -6.05471
H         10.65810        7.03851       -4.25650
H         12.09428        7.68309       -5.04563
H         11.61152        6.26801       -7.07662
H         10.19877        5.59176       -6.26756
H         11.66995        4.64682       -4.46166
H         13.08125        5.38184       -5.21523
H         12.64389        4.01637       -7.30310
H         11.30999        3.20898       -6.48546
H         12.90590        2.34702       -4.72505
H         14.23433        3.17260       -5.51120
H         12.53185        0.85556       -6.62565
H         14.23481        0.77184       -6.09772
H         15.89642        1.66125       -7.68273
H         15.15267        3.27074       -7.57539
H         16.43534        2.81085       -9.68242
H         14.63742        4.59276       -9.46527
H         16.09702        4.86443      -13.42699
H         12.58451        4.26925      -10.93836
H         12.57410        3.33923       -9.43085
H         13.25375        2.26398      -12.24231
H         11.82587        1.85544      -11.25949
H         13.62749        0.11547      -11.11929
H         13.32469        0.91358       -9.59995
H         15.43557        1.57684      -11.52057
H         15.59190       -0.24732       -9.04140
H         16.93852        0.25340      -10.06258
H         17.08253       -3.48176      -12.53788
H         15.38901       -2.96137      -12.68689
H         16.48511       -4.91200      -10.55795
H         15.62189       -5.35601      -12.02015
H         13.58929       -4.10118      -11.21079
H         14.44683       -3.64973       -9.74163
H         13.80624       -6.55065      -10.58230
H         12.98158       -5.63232       -9.31063
H         14.68224       -6.09342       -9.11005
H         17.51869       -1.88536       -9.26286
H         18.44691       -1.56108      -10.76392
H         18.03718       -3.22318      -10.28957
