38

C          1.30595       -0.58446       -0.16222
C          2.74953       -0.10307       -0.32783
C          2.95303        1.21849       -1.09273
C          2.20621        2.42181       -0.41074
C          2.82554        3.75333       -0.67528
N          2.08730        4.54672       -1.38404
C          0.83070        3.85450       -1.86613
C          0.74822        2.64860       -0.89918
C         -0.31807        4.73790       -1.86164
C         -1.29164        5.45363       -1.86473
C          2.44325        5.90678       -1.80066
C          2.94550        5.95101       -3.26378
C          3.21795        7.35160       -3.68692
C          4.42165        7.89098       -3.92102
F          5.55596        7.20758       -3.79620
F          4.62439        9.13299       -4.30661
F          2.11951        8.13628       -3.83141
C          4.44813        1.50739       -1.24771
O          4.68883        2.71587       -1.99172
H          1.29165       -1.56761        0.32437
H          0.79868       -0.69346       -1.13194
H          0.70363        0.08760        0.46582
H          3.32247       -0.87850       -0.86047
H          3.22297       -0.00835        0.66449
H          2.52729        1.11420       -2.10847
H          2.24309        2.24593        0.67749
H          3.76229        4.12038       -0.25773
H          1.03506        3.52313       -2.90000
H          0.32547        1.77441       -1.40230
H          0.09265        2.90802       -0.05865
H         -2.15732        6.08601       -1.86544
H          3.21982        6.27277       -1.11781
H          1.54597        6.52927       -1.68281
H          2.18398        5.52539       -3.93765
H          3.86130        5.35309       -3.36102
H          4.95122        0.65385       -1.72662
H          4.92560        1.65623       -0.26653
H          4.64102        2.51021       -2.93937
