90

N          1.10239       -0.36295       -0.87122
N          2.46042       -0.09364       -0.51486
C          2.98803        1.08829       -1.19734
C          2.52142        2.51041       -0.72675
N          3.02372        3.56722       -1.60478
C          2.66971        3.37208       -2.99985
C          3.13048        2.02600       -3.55015
N          2.68624        0.87132       -2.67995
C          3.22714       -0.44657       -3.23131
C          2.32952       -0.97638       -4.34322
C          2.83853       -2.31103       -4.92510
C          1.90002       -2.83533       -5.98959
C          2.02583       -2.41769       -7.32256
C          1.12325       -2.85511       -8.29452
C          0.08140       -3.71840       -7.94476
C         -0.04912       -4.14653       -6.62121
C          0.85539       -3.70736       -5.65172
C          1.00328        2.65912       -0.50388
C          0.57647        4.08295       -0.15258
O         -0.79402        4.01241        0.19917
C         -1.38611        5.29852        0.37884
C         -2.85430        5.09211        0.72544
O         -3.42333        6.39292        0.76379
C         -4.76683        6.51119        1.04358
C         -5.27477        7.81780        1.02249
C         -6.61703        8.04355        1.29113
C         -7.50460        6.99303        1.59939
C         -6.97364        5.69957        1.60172
C         -5.62191        5.44532        1.33043
C         -8.97275        7.29419        1.92663
C         -9.11149        8.18379        3.20821
C         -8.51966        7.82759        4.60683
C         -8.98850        6.46277        5.14612
C         -6.97804        7.86734        4.63651
C         -9.03956        8.92479        5.56222
C         -9.57959        8.11953        0.76163
C         -9.82503        6.01334        2.02644
N          2.83524       -0.07251        0.84198
H          0.96207       -1.37330       -0.82326
H          0.43431        0.08262       -0.23133
H          4.08166        1.04298       -1.08738
H          3.01695        2.65035        0.24626
H          4.02198        3.73062       -1.47919
H          3.12193        4.16697       -3.60806
H          1.57870        3.47872       -3.11685
H          4.22814        1.97400       -3.57841
H          2.74564        1.83308       -4.56024
H          1.65358        0.76486       -2.69518
H          3.27281       -1.13971       -2.38450
H          4.25075       -0.24422       -3.57427
H          2.24552       -0.24904       -5.16644
H          1.31193       -1.12540       -3.94497
H          2.93757       -3.05132       -4.11559
H          3.84521       -2.16570       -5.34804
H          2.84439       -1.75162       -7.60697
H          1.23720       -2.52619       -9.32812
H         -0.62144       -4.06270       -8.70378
H         -0.85277       -4.82946       -6.34390
H          0.75414       -4.05540       -4.62068
H          0.69229        2.02260        0.33886
H          0.41208        2.32834       -1.37253
H          0.72793        4.76563       -1.00816
H          1.18460        4.47846        0.68628
H         -1.30523        5.89512       -0.54895
H         -0.87744        5.85538        1.18732
H         -2.95397        4.58191        1.70011
H         -3.33925        4.46652       -0.04559
H         -4.59937        8.64232        0.79258
H         -6.97657        9.07318        1.27730
H         -7.61388        4.84816        1.82938
H         -5.26042        4.41772        1.34976
H        -10.19611        8.33613        3.34779
H         -8.71211        9.18034        2.95353
H         -8.52572        5.62781        4.60351
H        -10.08084        6.35064        5.08533
H         -8.70267        6.35909        6.20349
H         -6.52694        7.05831        4.04931
H         -6.62345        7.76638        5.67347
H         -6.59278        8.81984        4.24453
H        -10.13809        8.91721        5.62186
H         -8.72885        9.92584        5.22735
H         -8.64619        8.77471        6.57827
H         -9.07628        9.08660        0.63091
H        -10.64334        8.32339        0.95222
H         -9.50104        7.56657       -0.18487
H         -9.47792        5.30873        2.78936
H         -9.84730        5.48466        1.06230
H        -10.86026        6.28093        2.28010
H          2.94341       -1.03043        1.17576
H          2.14866        0.40882        1.43532
