63

C          1.48767       -1.50826       -2.46015
C          2.50112       -1.90674       -1.68840
C          2.74226       -1.36563       -0.30567
N          4.16526       -0.93473       -0.12090
C          5.01259       -1.81193        0.43999
C          6.38329       -1.56455        0.57483
C          7.24458       -2.51408        1.18629
C          8.58543       -2.22565        1.27732
C          9.10129       -1.01054        0.76127
C          8.30234       -0.05267        0.15304
C          6.90054       -0.32424        0.06518
C          5.96175        0.57332       -0.49860
C          4.61482        0.29400       -0.59270
C          3.62746        1.29340       -1.12051
C          2.92206        2.07988        0.01141
C          1.76726        2.92257       -0.54130
S          0.66561        3.56635        0.74311
C         -0.34118        2.16176        1.10287
S         -0.36730        0.74214        0.25505
N         -1.18216        2.39478        2.19044
C         -1.08382        3.40950        3.16079
N         -2.02670        3.31459        4.05339
C         -2.79514        2.21488        3.67797
C         -2.29550        1.62742        2.55311
C          8.85989        1.23719       -0.40673
C         10.37886        1.40906       -0.31831
C         10.81655        2.73765       -0.94154
S         12.58194        3.08003       -0.73097
C         12.63803        3.70243        0.92391
S         11.33860        4.11782        1.84457
N         13.95985        3.84862        1.35936
C         15.10803        3.21738        0.85523
N         16.17763        3.55976        1.51801
C         15.74668        4.45659        2.49054
C         14.39509        4.64031        2.42572
H          1.30877       -1.96177       -3.43467
H          0.79052       -0.73167       -2.13726
H          3.18292       -2.69403       -2.02396
H          2.56527       -2.13745        0.45669
H          2.07394       -0.52514       -0.07870
H          4.57147       -2.74699        0.78524
H          6.83773       -3.44996        1.57083
H          9.26789       -2.93536        1.74486
H         10.17256       -0.83268        0.85113
H          6.29248        1.53954       -0.87607
H          2.87786        0.79823       -1.75251
H          4.17041        1.98894       -1.77490
H          3.64941        2.71788        0.53378
H          2.52402        1.38049        0.76057
H          1.14018        2.33797       -1.23071
H          2.12454        3.82093       -1.06532
H         -0.27745        4.13682        3.15311
H         -3.66829        1.91948        4.25136
H         -2.60269        0.77650        1.95925
H          8.38427        2.08557        0.11708
H          8.54662        1.32486       -1.46212
H         10.89491        0.58125       -0.82843
H         10.69397        1.39710        0.73578
H         10.27512        3.58791       -0.49944
H         10.66912        2.74875       -2.03195
H         15.05697        2.49904        0.04249
H         16.44851        4.91552        3.17978
H         13.69689        5.24187        2.99309
