66

C          0.95895        6.94918       -4.16908
C          2.35585        6.32667       -4.23165
C          3.14419        6.48324       -2.92622
C          4.54763        5.87184       -2.97788
C          5.33852        6.05148       -1.67697
C          6.74789        5.45100       -1.74774
C          7.55247        5.69762       -0.48355
O          8.87355        5.14134       -0.66680
C          9.76059        5.45457        0.38385
N         11.11048        5.10811       -0.02184
C         11.53813        3.83719        0.10398
N         12.82868        3.49088        0.13370
C         12.95809        2.04386        0.34080
C         11.49688        1.61314        0.70114
N         10.73936        2.76236        0.21507
C         11.29916        1.41715        2.23110
O         10.74776        2.28371        2.88039
C         11.81151        0.12610        2.81260
C         11.92749        6.10996       -0.72437
C         13.04061        6.70130        0.15903
O         13.78330        5.91257        0.77794
N         13.19802        8.04179        0.19232
C         14.31872        8.61249        0.96796
C         13.87197        9.31228        2.25781
C         13.14269        8.40598        3.25623
C         12.75214        9.14022        4.54124
C         12.32911        8.98515       -0.51994
H          0.41838        6.82114       -5.11665
H          1.01131        8.02818       -3.96058
H          0.35120        6.48950       -3.37572
H          2.92726        6.78402       -5.05721
H          2.27312        5.25497       -4.47992
H          2.57446        6.02262       -2.09996
H          3.22199        7.55624       -2.67595
H          5.11338        6.32489       -3.81086
H          4.47148        4.79617       -3.21417
H          4.78060        5.59287       -0.84249
H          5.40780        7.12786       -1.44154
H          7.29660        5.88215       -2.60061
H          6.68702        4.36581       -1.92961
H          7.07108        5.23445        0.39808
H          7.64525        6.78243       -0.28205
H          9.51740        4.90579        1.31319
H          9.74668        6.53606        0.61333
H         13.49754        4.24232        0.41937
H         13.66870        1.83564        1.15081
H         13.31283        1.54588       -0.57261
H         11.21540        0.69636        0.16488
H          9.72738        2.82075        0.18987
H         12.75770       -0.19657        2.35602
H         11.07394       -0.66564        2.60079
H         11.92193        0.21686        3.89800
H         11.23326        6.85171       -1.12996
H         12.42262        5.63221       -1.58431
H         14.84797        9.31829        0.30992
H         14.99754        7.78284        1.19551
H         13.24021       10.18564        2.01911
H         14.78054        9.72641        2.72426
H         13.78078        7.53997        3.49454
H         12.23627        7.99040        2.78338
H         13.63736        9.53634        5.05944
H         12.22989        8.47363        5.24003
H         12.08605        9.98999        4.33100
H         11.27145        8.85221       -0.25596
H         12.44973        8.91246       -1.61050
H         12.61007        9.99992       -0.22042
