48

C         10.04512        0.85624        8.95422
C          9.81810        0.69292        7.44951
C          9.37681        1.99396        6.76888
C          9.13919        1.83868        5.26218
C          8.77391        3.17124        4.60746
N          8.58575        3.01023        3.15799
C          7.57142        3.48013        2.42064
N          6.85555        4.55654        2.82018
C          7.56657        5.76833        3.25684
C          7.85856        6.69658        2.05009
C          8.78603        7.84488        2.44662
O         10.06582        7.24653        2.70068
O          8.42647        5.93716        0.98426
C          5.45329        4.75012        2.39963
C          4.48410        3.57870        2.64492
C          4.41165        2.95807        4.04157
C          4.19588        3.91944        5.25639
Br         2.64958        5.09358        5.03053
F          4.07484        3.22503        6.39822
F          5.31004        4.70615        5.38949
Br         2.98508        1.61196        4.04030
F          5.60361        2.29373        4.31576
N          7.21698        2.81951        1.29593
H         10.36099       -0.08954        9.41342
H          9.12744        1.18293        9.46483
H         10.82541        1.60283        9.16289
H          9.05861       -0.08654        7.27163
H         10.74408        0.33071        6.97220
H         10.14240        2.77066        6.94037
H          8.45351        2.36349        7.24719
H          8.33163        1.11184        5.07831
H         10.05073        1.43408        4.78726
H          9.56494        3.91608        4.79533
H          7.83506        3.56169        5.02010
H          9.23359        2.38190        2.68955
H          8.51670        5.48876        3.72236
H          6.95605        6.28064        4.01296
H          6.91755        7.12557        1.67007
H          8.39978        8.36750        3.33941
H          8.84291        8.56370        1.61362
H         10.74666        7.93581        2.70067
H          9.39341        5.97866        1.11731
H          5.38398        5.01621        1.33051
H          5.10580        5.63216        2.95215
H          4.69640        2.74115        1.96870
H          3.48335        3.94399        2.38110
H          7.57428        1.88858        1.11586
H          6.89650        3.35344        0.49513
