75

C          0.98441       -0.43032        0.35071
C          2.43600       -0.86714        0.55950
C          3.02154       -1.62007       -0.64164
C          4.48268       -2.03209       -0.43027
C          5.09545       -2.70975       -1.64453
O          6.47798       -2.97315       -1.35657
C          7.20779       -3.49544       -2.43844
C          8.72961       -3.42565       -2.12274
C          8.88769       -4.00406       -0.70417
N         10.18777       -3.58095       -0.05270
C         10.35280       -2.07631       -0.03245
C         10.33621       -1.57195       -1.46864
N          9.08656       -2.00316       -2.07950
C         10.45324       -0.04179       -1.49801
C         10.61573        0.53709       -2.90946
C         10.78991        2.05987       -2.91001
C         10.97223        2.65206       -4.31187
C         11.11045        4.17622       -4.30572
C          9.43240       -4.28291       -3.21523
C         10.95964       -4.32836       -3.26362
O         11.31525       -5.25987       -4.25287
C         12.72546       -5.31668       -4.48193
C         12.99296       -6.31137       -5.60265
O         14.39533       -6.32545       -5.78166
C         14.82534       -7.16505       -6.85144
C         16.34122       -7.04733       -6.92925
O         16.77631       -7.83656       -8.02037
C         18.18667       -7.79882       -8.18651
H          0.60296        0.11759        1.22263
H          0.32463       -1.29521        0.18822
H          0.88760        0.23006       -0.52366
H          2.50595       -1.50388        1.45759
H          3.06124        0.01774        0.76736
H          2.94577       -0.98149       -1.53896
H          2.40682       -2.51226       -0.85079
H          4.56122       -2.70931        0.43615
H          5.08820       -1.14198       -0.19207
H          5.02994       -2.05559       -2.53537
H          4.57435       -3.65599       -1.88476
H          7.03184       -2.90950       -3.36284
H          6.91715       -4.54278       -2.65496
H          8.86758       -5.10103       -0.71148
H          8.08173       -3.61975       -0.06723
H         10.97956       -3.99464       -0.57408
H         10.22650       -3.95740        0.90285
H         11.30066       -1.85317        0.47336
H          9.50827       -1.67378        0.54292
H         11.24711       -1.97886       -1.96738
H          8.93595       -1.55960       -2.98363
H         11.32851        0.25004       -0.89370
H          9.56371        0.38905       -1.01006
H          9.73861        0.28841       -3.53260
H         11.48594        0.06579       -3.39894
H         11.65948        2.32667       -2.28420
H          9.91405        2.52599       -2.42638
H         10.11407        2.36299       -4.94226
H         11.86078        2.20043       -4.78452
H         10.21824        4.65632       -3.87760
H         11.24212        4.56957       -5.32241
H         11.97714        4.49800       -3.71002
H          9.09017       -3.92084       -4.19794
H          9.07412       -5.32173       -3.13581
H         11.40457       -4.65046       -2.28498
H         11.39291       -3.33524       -3.49328
H         13.25291       -5.63710       -3.56318
H         13.10975       -4.31994       -4.76734
H         12.47044       -5.99223       -6.52519
H         12.60878       -7.31274       -5.32644
H         14.37198       -6.84324       -7.80766
H         14.53038       -8.21551       -6.66970
H         16.79533       -7.39432       -5.97981
H         16.62442       -5.98480       -7.06686
H         18.42404       -8.42661       -9.05323
H         18.70982       -8.19648       -7.29737
H         18.54403       -6.76978       -8.37598
