59

C         13.90076        1.33820        6.45141
C         13.22773        0.14499        5.76990
C         11.73366        0.36674        5.50143
C         11.07134       -0.83447        4.81507
C          9.58653       -0.63290        4.57147
O          9.07470       -1.81522        3.91258
C          7.66169       -1.88117        3.79073
C          7.37893       -3.27062        3.21477
N          8.25803       -4.25938        3.94125
C          7.69803       -4.70492        5.27370
C          8.75296       -5.47325        6.07067
C          9.90136       -4.57620        6.58780
C          9.43150       -3.40120        7.44321
O          8.54014       -3.90067        8.42037
C          8.02203       -2.89650        9.29243
C          7.11995       -3.59142       10.30299
O          6.52309       -2.58420       11.09406
C          5.69864       -3.11596       12.12525
C          9.24742       -6.67987        5.25271
C          9.73988       -6.27252        3.84304
C          8.67262       -5.44086        3.10504
C         10.08953       -7.42659        3.02611
C         10.35465       -8.39103        2.34750
H         14.96682        1.14515        6.62951
H         13.43673        1.56006        7.42356
H         13.82738        2.24531        5.83408
H         13.35322       -0.75666        6.39353
H         13.73763       -0.07276        4.81653
H         11.60438        1.26658        4.87642
H         11.21941        0.58045        6.45452
H         11.21178       -1.73566        5.43577
H         11.56565       -1.03382        3.85055
H          9.39672        0.24410        3.92869
H          9.03915       -0.48656        5.52109
H          7.26596       -1.11542        3.10154
H          7.17627       -1.73258        4.77392
H          7.66648       -3.30886        2.15660
H          6.32855       -3.56897        3.31467
H          9.10275       -3.67632        4.13796
H          6.82429       -5.33270        5.04860
H          7.35514       -3.81017        5.80589
H          8.22748       -5.85170        6.95944
H         10.52502       -4.17657        5.76972
H         10.56983       -5.21049        7.18845
H          8.92752       -2.62603        6.82550
H         10.30345       -2.90545        7.91146
H          7.44088       -2.14669        8.72134
H          8.84319       -2.36789        9.80982
H          7.71634       -4.28984       10.92233
H          6.35379       -4.19059        9.76939
H          5.29006       -2.26265       12.67799
H          6.27927       -3.75249       12.81690
H          4.86581       -3.71146       11.70888
H          8.43456       -7.41374        5.13881
H         10.06132       -7.19420        5.78088
H         10.64438       -5.64400        3.94444
H          7.77235       -6.03859        2.90331
H          9.06223       -5.05585        2.15461
H         10.60693       -9.24590        1.75386
