40

C          1.11643       -0.15058       -1.76255
C          2.53006       -0.72312       -1.60334
C          3.57824        0.28836       -2.03888
O          4.94509       -0.20859       -1.75870
C          5.53898       -0.91909       -2.70642
O          5.10823       -1.23556       -3.79573
C          6.96996       -1.29369       -2.23861
N          7.46471       -2.38761       -3.06399
C          8.08632       -2.26126       -4.19115
C          8.31998       -3.54339       -4.87182
C          7.40400       -4.55500       -4.08770
C          7.14044       -3.80022       -2.74630
C          8.07753       -5.82719       -3.85418
C          8.61930       -6.89311       -3.67733
C          6.04169       -4.78098       -4.80943
C          6.16828       -5.43234       -6.19648
C          4.83856       -6.06952       -6.63938
F          4.36872       -6.93284       -5.70834
F          3.89002       -5.10110       -6.82473
F          4.97241       -6.73377       -7.80041
O          6.63127       -4.52628       -7.19435
H          0.36740       -0.88709       -1.44712
H          0.90241        0.11421       -2.80757
H          0.97511        0.75061       -1.14960
H          2.63462       -1.63919       -2.20491
H          2.71173       -0.99625       -0.55263
H          3.52467        1.21419       -1.45347
H          3.51404        0.52037       -3.10997
H          6.97102       -1.59600       -1.18471
H          7.62297       -0.41753       -2.35080
H          8.38958       -1.27361       -4.54553
H          9.39056       -3.80798       -4.80927
H          8.07268       -3.49688       -5.94482
H          7.79800       -4.13194       -1.92990
H          6.09563       -3.86869       -2.41578
H          9.09635       -7.83954       -3.51905
H          5.51068       -3.81969       -4.90274
H          5.43827       -5.43092       -4.15976
H          6.90313       -6.25190       -6.16166
H          5.88370       -3.97422       -7.48541
