60

C         -0.47744        7.50864       -0.72932
C          0.99985        7.90393       -0.79576
C          1.91930        6.95865       -0.01449
C          3.39816        7.35378       -0.07139
C          4.31741        6.41742        0.71954
C          5.79418        6.82159        0.66881
C          6.71130        5.90081        1.47984
C          8.18686        6.31121        1.43456
C          9.09235        5.40301        2.27536
C         10.59190        5.72458        2.18561
C         10.97443        7.10382        2.74666
C         12.48591        7.33754        2.89484
C         13.17493        7.38438        1.53101
N         14.64522        7.44876        1.63965
N         15.20159        8.19835        2.65289
C         16.48630        8.04682        2.52067
N         16.80037        7.24152        1.44781
C         15.60712        6.87426        0.87931
N         15.54523        6.14048       -0.24658
C         14.37153        5.70306       -1.01597
C         13.84512        4.34277       -0.56476
O         14.95305        3.44907       -0.63423
C         18.12993        6.87958        0.96443
H         -1.10746        8.20570       -1.29858
H         -0.84314        7.50252        0.30836
H         -0.64070        6.50157       -1.14143
H          1.12453        8.93006       -0.40993
H          1.32584        7.93730       -1.84936
H          1.79962        5.93115       -0.40160
H          1.59183        6.92186        1.03971
H          3.51437        8.38390        0.30962
H          3.72744        7.38429       -1.12526
H          4.20701        5.38720        0.33778
H          3.98549        6.38499        1.77222
H          5.90055        7.85713        1.03779
H          6.13163        6.84064       -0.38284
H          6.60916        4.86416        1.11387
H          6.37236        5.88335        2.53043
H          8.27485        7.35651        1.77626
H          8.53600        6.30416        0.38562
H          8.93918        4.35673        1.96422
H          8.77908        5.45036        3.33270
H         10.90272        5.63799        1.12759
H         11.15537        4.95130        2.73681
H         10.52216        7.21788        3.74413
H         10.53701        7.90500        2.12885
H         12.93304        6.52935        3.49666
H         12.67507        8.27635        3.43110
H         12.83257        8.25203        0.94531
H         12.93978        6.47578        0.96929
H         17.23293        8.49297        3.17002
H         16.38061        5.59621       -0.44590
H         14.71054        5.62676       -2.05814
H         13.59237        6.47197       -0.98577
H         13.02558        4.04444       -1.24135
H         13.43952        4.39784        0.46357
H         14.65154        2.54331       -0.46548
H         18.87301        7.37755        1.59488
H         18.26243        7.21809       -0.07197
H         18.28671        5.79414        1.03217
