51

O          3.99056       -1.11701       -1.54677
C          3.35624       -0.23077       -0.92987
N          2.55415        0.66341       -1.54729
C          2.20542        0.80460       -2.91992
C          1.38801        1.90120       -3.23887
C          0.98911        2.11604       -4.55547
C          1.40034        1.23967       -5.56398
C          2.21234        0.15045       -5.24070
C          2.62316       -0.07945       -3.92593
C          3.41781       -0.11740        0.59327
C          4.82966       -0.30394        1.20513
C          5.33484       -1.72061        1.33183
C          5.90958       -2.25259        2.47993
C          6.38910       -3.56423        2.45603
C          6.30065       -4.36446        1.30876
C          5.69835       -3.79458        0.17077
N          5.25684       -2.51837        0.23935
C          5.52234       -4.49855       -1.13963
C          6.78445       -5.78832        1.30522
C          5.66734       -6.79585        1.70391
C          6.12507       -8.22574        1.54039
C          5.94536       -8.89242        0.31977
C          6.40659      -10.19829        0.14342
C          7.05837      -10.85599        1.19010
C          7.24109      -10.20256        2.41146
C          6.77730       -8.89656        2.58445
H          2.11515        1.35155       -0.94129
H          1.06579        2.58869       -2.45260
H          0.35464        2.97017       -4.79215
H          1.08927        1.40671       -6.59491
H          2.53757       -0.53740       -6.02162
H          3.25941       -0.92522       -3.68458
H          2.72651       -0.87034        1.00726
H          3.03373        0.85992        0.91656
H          4.82828        0.13561        2.21054
H          5.56147        0.27691        0.61879
H          5.99041       -1.64329        3.37915
H          6.85054       -3.98029        3.35393
H          4.77750       -2.05461       -0.61091
H          6.49961       -4.76622       -1.56785
H          4.99091       -3.86908       -1.86247
H          4.96038       -5.43410       -1.01310
H          7.62516       -5.89364        2.00554
H          7.17021       -6.06170        0.31285
H          4.77366       -6.61763        1.08560
H          5.36981       -6.60178        2.74590
H          5.42823       -8.38780       -0.50066
H          6.25110      -10.70577       -0.80929
H          7.41657      -11.87701        1.05647
H          7.74101      -10.71334        3.23527
H          6.91659       -8.39619        3.54578
