48

C          1.30663        0.32760       -1.02291
C          2.79238        0.09777       -0.73635
C          3.19781       -1.38005       -0.79839
C          4.68276       -1.60991       -0.49374
C          5.06683       -3.07944       -0.53930
O          6.46048       -3.20303       -0.21582
C          6.90704       -4.53953       -0.21866
C          8.38522       -4.48446        0.17435
C          9.01877       -5.82501        0.25869
N          8.41867       -6.96660        0.05827
N          9.39503       -7.91449        0.22680
C         10.60130       -7.38288        0.52269
N         10.38375       -6.02666        0.54801
C         11.37528       -4.98235        0.61746
C         12.27150       -4.81111       -0.43725
C         13.20751       -3.77794       -0.32359
N         13.27291       -2.94968        0.72736
C         12.38942       -3.12489        1.71909
C         11.41704       -4.13115        1.72076
N         11.73745       -8.06882        0.70815
C         12.87178       -7.56876        1.49917
C         11.75084       -9.49841        0.38031
H          1.04931        1.39398       -0.96912
H          0.67234       -0.20316       -0.29748
H          1.03172       -0.02950       -2.02635
H          3.04324        0.49918        0.25988
H          3.40152        0.67080       -1.45542
H          2.95728       -1.78082       -1.79857
H          2.58119       -1.95437       -0.08490
H          4.92704       -1.21269        0.50477
H          5.30639       -1.05683       -1.21452
H          4.88251       -3.50554       -1.54503
H          4.46844       -3.66574        0.18557
H          6.78670       -5.00597       -1.21612
H          6.33781       -5.15740        0.50298
H          8.47370       -3.96810        1.14378
H          8.93616       -3.86109       -0.54952
H          9.14519       -8.89593        0.17684
H         12.24360       -5.45519       -1.31665
H         13.93508       -3.60787       -1.12124
H         12.46134       -2.43180        2.56067
H         10.72708       -4.24900        2.55620
H         12.62331       -6.62532        1.98998
H         13.75304       -7.42041        0.86059
H         13.10802       -8.30751        2.27706
H         11.22020       -9.68296       -0.56300
H         11.31183      -10.10942        1.18585
H         12.79231       -9.80813        0.24034
