134

C          2.18189        6.82246       -3.19586
C          3.56627        6.22517       -2.92965
C          4.13033        6.59226       -1.55271
C          5.51704        6.00522       -1.27029
C          6.06653        6.37940        0.10998
C          7.45258        5.79978        0.40983
C          7.98439        6.18364        1.79447
C          9.36959        5.61147        2.11161
C          9.88496        5.99772        3.50185
C         11.26711        5.42567        3.83165
C         11.78031        5.82272        5.21965
C         13.16695        5.25978        5.54615
C         13.68360        5.65530        6.93323
C         15.07589        5.09865        7.24612
C         15.59435        5.46989        8.63907
C         16.99317        4.91798        8.93084
C         17.51110        5.24543       10.33510
C         18.92723        4.72021       10.58860
C         19.45268        4.99013       12.00327
C         20.90094        4.51746       12.17570
C         21.49823        4.73479       13.57840
C         21.72943        6.20832       13.92924
N         23.01515        6.66825       13.37632
C         23.89790        5.89675       12.71773
N         24.84259        6.50405       11.96196
N         23.83294        4.56119       12.80388
C         22.85465        4.02232       13.80609
C         22.77718        2.49372       13.86740
C         23.95502        1.77830       14.56005
C         24.25384        2.22176       15.99738
C         25.45041        1.47781       16.60237
C         25.86286        1.99079       17.98570
C         27.14030        1.33332       18.51934
C         27.59479        1.87821       19.87697
C         28.91431        1.27438       20.36950
C         29.37148        1.82188       21.72513
C         30.69819        1.23297       22.21622
C         31.12558        1.75773       23.59062
C         32.44058        1.16256       24.10500
C         32.82089        1.65218       25.50644
C         34.11440        1.03891       26.05208
C         34.46634        1.51205       27.46740
C         35.74901        0.88499       28.01973
C         24.57383        3.71512       11.84676
C         23.98322        3.65666       10.43192
C         24.87543        2.84203        9.49233
H          1.80332        6.54091       -4.18828
H          2.20549        7.92162       -3.14899
H          1.44870        6.47790       -2.45105
H          4.26929        6.56066       -3.71108
H          3.51776        5.12663       -3.02062
H          3.42642        6.25532       -0.77087
H          4.17519        7.69216       -1.46062
H          6.22306        6.34354       -2.04937
H          5.47395        4.90531       -1.36097
H          5.35692        6.04251        0.88643
H          6.10652        7.47961        0.19854
H          8.16586        6.13747       -0.36288
H          7.41562        4.69927        0.32446
H          7.26771        5.84670        2.56437
H          8.01794        7.28442        1.87830
H         10.09017        5.95245        1.34719
H          9.33898        4.51082        2.02602
H          9.16039        5.66151        4.26461
H          9.91777        7.09861        3.58458
H         11.99151        5.75753        3.06679
H         11.23423        4.32432        3.75617
H         11.05962        5.48526        5.98544
H         11.80663        6.92412        5.29696
H         13.88667        5.59788        4.77958
H         13.14112        4.15842        5.46830
H         12.97004        5.30844        7.70139
H         13.70300        6.75638        7.01609
H         15.79033        5.45736        6.48391
H         15.05890        3.99887        7.14705
H         14.88804        5.09918        9.40260
H         15.60483        6.56891        8.74642
H         17.70189        5.31121        8.18020
H         16.98822        3.82230        8.79347
H         16.82197        4.82363       11.08724
H         17.49381        6.33894       10.48816
H         19.61721        5.17382        9.85448
H         18.95477        3.63367       10.39455
H         18.80681        4.48743       12.74312
H         19.37187        6.07071       12.21380
H         21.52580        5.01788       11.41756
H         20.94636        3.44244       11.93939
H         20.79461        4.33743       14.32616
H         21.75170        6.34802       15.02005
H         20.93358        6.84908       13.52425
H         23.21307        7.66183       13.42389
H         24.83603        7.50728       11.83653
H         25.66930        6.00324       11.66603
H         23.22929        4.35966       14.78729
H         22.60412        2.06509       12.86821
H         21.86057        2.27341       14.43725
H         24.88241        1.88089       13.97233
H         23.72995        0.70015       14.55434
H         23.36038        2.07799       16.62917
H         24.47642        3.30335       16.02645
H         26.31066        1.57048       15.91544
H         25.22512        0.39917       16.65682
H         25.03702        1.83443       18.70114
H         26.01550        3.08406       17.93512
H         27.95124        1.47563       17.78288
H         26.98958        0.24228       18.59264
H         26.80578        1.69739       20.62788
H         27.70101        2.97581       19.81092
H         29.70115        1.45906       19.61664
H         28.81265        0.17681       20.43443
H         28.58750        1.62766       22.47828
H         29.46172        2.92100       21.66296
H         31.49035        1.44769       21.47724
H         30.61537        0.13250       22.25699
H         30.32464        1.54789       24.32153
H         31.21377        2.85800       23.55082
H         33.25451        1.40081       23.39767
H         32.36242        0.06098       24.11377
H         31.99324        1.42862       26.20284
H         32.91454        2.75264       25.49611
H         34.95032        1.27473       25.36970
H         34.02577       -0.06209       26.04892
H         33.62473        1.28388       28.14344
H         34.56294        2.61117       27.46854
H         35.66968       -0.21153       28.06625
H         35.97011        1.24449       29.03423
H         36.61641        1.12487       27.38648
H         24.61053        2.70997       12.27398
H         25.62774        4.04061       11.81952
H         23.84903        4.67504       10.03503
H         22.98031        3.20890       10.48294
H         25.87273        3.29396        9.38611
H         24.43215        2.78335        8.49070
H         25.01289        1.81291        9.85422
