81

C          0.82019       -0.11490       -0.52538
C          2.34781       -0.04985       -0.45287
C          3.03857       -1.29256       -1.02619
C          4.56773       -1.21821       -0.97852
C          5.27009       -2.45860       -1.54111
C          6.79594       -2.32789       -1.56262
C          7.52913       -3.56549       -2.09115
C          9.03625       -3.33916       -2.24835
C          9.81729       -4.57488       -2.70550
C         11.28294       -4.26536       -3.03037
C         12.09332       -5.50079       -3.43827
C         13.46941       -5.14664       -3.98327
O         14.18882       -6.36578       -4.25760
C         14.92976       -6.40030       -5.45763
C         15.03365       -7.85792       -5.93866
O         15.94086       -8.67159       -5.21265
C         15.55479       -8.96765       -3.87666
C         16.55020      -10.00283       -3.35903
C         16.51795      -10.34544       -1.85475
C         15.37208      -11.26689       -1.39102
O         14.06248      -10.64668       -1.43145
O         17.75480      -10.94122       -1.46703
N         14.17455       -9.48331       -3.88149
C         13.32564       -9.18125       -4.85738
N         12.03101       -9.63241       -4.76331
C         11.00633       -9.33881       -5.67940
O         11.17104       -8.67179       -6.68866
O          9.87929       -9.89774       -5.25138
C          8.68391       -9.69886       -6.09549
C          7.47870      -10.16136       -5.30189
C          6.17813       -9.98908       -6.10168
C          4.93999      -10.42218       -5.31222
N         13.71688       -8.50148       -5.93013
H          0.35784        0.79015       -0.10788
H          0.42932       -0.97658        0.03636
H          0.47399       -0.21485       -1.56515
H          2.66246        0.08810        0.59554
H          2.70449        0.84332       -0.99363
H          2.71339       -1.43994       -2.07156
H          2.69598       -2.18691       -0.47581
H          4.89415       -1.05767        0.06417
H          4.90398       -0.32724       -1.53808
H          4.90766       -2.65056       -2.56672
H          4.98157       -3.34463       -0.94813
H          7.15935       -2.09895       -0.54539
H          7.07073       -1.45524       -2.18137
H          7.10273       -3.85585       -3.06805
H          7.34725       -4.41936       -1.41459
H          9.45535       -2.97983       -1.29233
H          9.19930       -2.52147       -2.97216
H          9.33398       -5.00579       -3.60052
H          9.76458       -5.35479       -1.92534
H         11.76116       -3.78316       -2.16100
H         11.31490       -3.52001       -3.84405
H         11.54952       -6.06848       -4.21346
H         12.21267       -6.17727       -2.57532
H         14.04736       -4.54148       -3.26340
H         13.37503       -4.55897       -4.91328
H         15.95563       -6.00312       -5.33703
H         14.42946       -5.81338       -6.25126
H         15.41401       -7.86845       -6.96954
H         15.57176       -8.05044       -3.26098
H         17.54425       -9.57868       -3.56024
H         16.45326      -10.91716       -3.96772
H         16.46759       -9.40935       -1.27072
H         15.59526      -11.60691       -0.37060
H         15.30266      -12.15422       -2.03910
H         13.93950      -10.13007       -0.61949
H         17.91217      -11.73683       -2.00284
H         13.86457       -9.92049       -2.99161
H         11.77882      -10.20472       -3.96173
H          8.83207      -10.28209       -7.01593
H          8.63166       -8.63380       -6.35922
H          7.41993       -9.58425       -4.36499
H          7.60808      -11.21845       -5.01995
H          6.24272      -10.57075       -7.03590
H          6.07155       -8.93445       -6.40465
H          4.99871      -11.48162       -5.02384
H          4.02711      -10.29040       -5.90729
H          4.82515       -9.83178       -4.39165
H         12.97572       -8.28561       -6.61067
