44

C          5.44511       -1.13621        2.27113
O          5.18123       -0.88905        0.89195
C          5.67019        0.35941        0.45595
C          5.22326        0.51965       -0.99055
O          5.82648        1.72175       -1.49882
C          5.48968        2.01039       -2.83918
C          6.27835        3.25718       -3.22224
S          7.98905        3.11935       -2.56808
C          8.61524        1.58956       -3.34953
C         10.11918        1.33881       -3.09378
C         10.48968        1.23147       -1.61051
O         11.88367        1.15576       -1.42107
O         10.49145        0.17226       -3.81855
C          8.85033        4.43030       -3.50254
C          8.45299        5.80553       -2.94541
C          9.33260        6.94736       -3.47449
C          9.30974        7.17282       -5.02613
Br         7.48712        7.34472       -5.73955
F         10.02477        8.25044       -5.36244
F          9.89312        6.09124       -5.62203
Br         8.80435        8.59761       -2.57209
F         10.64827        6.67608       -3.15868
H          5.02375       -2.12072        2.50112
H          4.96673       -0.37603        2.91340
H          6.53037       -1.14786        2.47650
H          6.77846        0.40387        0.51323
H          5.27281        1.19040        1.07110
H          4.12403        0.59078       -1.05241
H          5.54754       -0.35300       -1.58680
H          4.41117        2.22365       -2.96319
H          5.73432        1.16431       -3.51029
H          5.87864        4.14966       -2.72185
H          6.32001        3.42160       -4.30708
H          8.41002        1.62762       -4.42802
H          8.00860        0.79778       -2.88474
H         10.72074        2.14054       -3.54953
H          9.95531        0.36375       -1.16534
H         10.15721        2.12640       -1.05883
H         12.23237        0.41618       -1.94759
H         10.10737       -0.61278       -3.38803
H          8.62968        4.30279       -4.56966
H          9.91939        4.24146       -3.33137
H          8.57531        5.81638       -1.85291
H          7.40811        6.04965       -3.17180
