57

C          2.34544       -2.86880        2.00082
C          2.80282       -1.61652        1.95011
C          3.38990       -1.00238        0.70743
N          4.80130       -0.59267        0.91088
C          5.31269        0.62785        0.92656
S          6.99695        0.65489        1.29524
C          7.15639       -1.17096        1.04922
C          5.73766       -1.66553        1.32020
C          7.70199       -1.46566       -0.35136
C          9.10306       -0.89749       -0.60023
C          9.55928       -1.02871       -2.05553
C         10.92132       -0.37674       -2.31526
C         11.43939       -0.59825       -3.74104
N         11.65444       -2.02875       -4.00128
C          4.59060        1.93332        0.63991
C          3.46470        2.20176        1.69428
C          3.73796        1.92740        3.18992
C          4.74988        2.88327        3.84128
C          2.39994        1.98298        3.94389
C          5.63986        3.08921        0.62851
O          4.92934        4.31434        0.54656
C          3.98909        1.89953       -0.79372
H          1.88461       -3.26911        2.90342
H          2.39409       -3.53553        1.13671
H          2.73464       -0.96371        2.82447
H          2.81960       -0.12071        0.40570
H          3.37641       -1.72009       -0.12659
H          7.84401       -1.53106        1.82617
H          5.56551       -1.88010        2.38668
H          5.50683       -2.57525        0.74861
H          6.99717       -1.07510       -1.10593
H          7.71374       -2.56221       -0.47561
H          9.82456       -1.39976        0.06623
H          9.11878        0.17053       -0.31687
H          8.80491       -0.56451       -2.71554
H          9.61221       -2.08941       -2.34630
H         11.66314       -0.77581       -1.60046
H         10.86563        0.70763       -2.12127
H         12.34060        0.02564       -3.89379
H         10.68601       -0.23947       -4.46093
H         12.50295       -2.35217       -3.53406
H         11.79528       -2.19654       -4.99699
H          2.58049        1.61772        1.39839
H          3.17756        3.25527        1.56228
H          4.13474        0.90003        3.29608
H          4.48212        3.93252        3.65040
H          5.77720        2.72567        3.48780
H          4.76560        2.73478        4.92937
H          1.95844        2.98924        3.88508
H          2.53649        1.74432        5.00708
H          1.66478        1.27711        3.52983
H          6.30555        2.95521       -0.24204
H          6.25995        3.06417        1.54177
H          5.55478        5.02519        0.33975
H          3.11062        1.25247       -0.88785
H          4.73899        1.57785       -1.52927
H          3.67743        2.92030       -1.04593
