115

C          3.95275       -1.90781       -3.32518
C          5.12191       -1.01025       -2.91589
C          5.30459       -0.95712       -1.39685
C          6.45280       -0.08609       -0.95741
O          7.06572        0.71923       -1.61866
O          6.74501       -0.30261        0.38123
C          7.79830        0.51657        0.89168
C          7.75186        0.34349        2.40706
N          8.71495        1.29397        2.99215
C          9.20807        1.44074        4.22549
N         10.32885        2.16447        4.46643
C         11.16206        2.81689        3.44057
C         12.39287        3.50326        4.02485
C         13.23224        4.07503        2.87414
S         14.91119        4.52436        3.36871
C         15.73798        2.92155        3.32056
S         14.93835        1.49988        2.93782
N         17.05001        3.00162        3.62470
C         17.74721        4.27092        3.88635
C         17.83285        4.64880        5.37089
C         18.61587        5.94998        5.57487
C         18.74441        6.36497        7.04415
C         19.55362        7.65093        7.24175
C         19.67513        8.08309        8.70664
C         20.49818        9.36100        8.90410
C         20.61487        9.78754       10.36961
C         17.88755        1.79216        3.68868
C         18.59356        1.47525        2.36562
C         19.51938        0.26124        2.48978
C         20.30280       -0.03536        1.20685
C         21.22407       -1.25427        1.32022
C         22.08305       -1.48950        0.07350
C         22.97199       -2.73512        0.16257
C         23.86796       -2.92909       -1.06348
N         10.65454        2.19070        5.79507
C          9.74604        1.48250        6.38164
N          8.80154        0.98847        5.46988
C          7.61340        0.27227        5.94696
C          6.52153        1.18603        6.66483
C          5.72239        2.26056        5.79928
C          4.45835        1.76200        4.99960
C          3.50659        2.85391        4.33390
C          4.03216        3.93858        3.31028
C          4.72666        3.52994        1.95066
C          3.96351        2.59295        0.94205
F          2.72441        3.03939        0.70855
F          4.65324        2.57338       -0.21303
F          3.90217        1.33223        1.41488
F          4.98202        4.69185        1.30724
F          5.92369        2.93133        2.23635
F          2.94993        4.68773        2.99551
F          4.92696        4.72741        3.96645
F          2.53628        2.13712        3.71037
F          2.94261        3.55466        5.34536
F          4.87481        0.90025        4.03084
F          3.65510        1.08830        5.85431
F          5.32554        3.22355        6.65419
F          6.62954        2.79644        4.92341
F          5.67425        0.34908        7.29025
F          7.20281        1.89932        7.60481
F          7.05695       -0.43583        4.95317
F          8.04887       -0.58588        6.89762
H          3.84615       -1.93909       -4.41715
H          3.00048       -1.54484       -2.91022
H          4.09419       -2.94142       -2.97663
H          4.97246        0.01012       -3.29802
H          6.05404       -1.37070       -3.37746
H          5.45071       -1.96182       -0.96929
H          4.39724       -0.56338       -0.90496
H          7.63267        1.56758        0.60376
H          8.76804        0.19617        0.47447
H          8.01895       -0.68419        2.68687
H          6.73938        0.55856        2.75828
H          9.22947        1.84135        2.30519
H         10.52614        3.54134        2.90205
H         11.49296        2.03462        2.73507
H         12.98858        2.75606        4.56445
H         12.10504        4.29250        4.73215
H         12.80327        5.00491        2.47233
H         13.33377        3.34094        2.06014
H         17.25746        5.07016        3.30992
H         18.75933        4.17010        3.46513
H         18.31706        3.83102        5.92960
H         16.81551        4.74929        5.78110
H         18.12880        6.76252        5.00772
H         19.62439        5.84062        5.13873
H         19.21543        5.54561        7.61500
H         17.73687        6.49443        7.47672
H         19.09297        8.46696        6.65710
H         20.56398        7.51187        6.81856
H         20.12901        7.26431        9.29259
H         18.66525        8.23108        9.12921
H         20.04657       10.17826        8.31646
H         21.50667        9.20971        8.48310
H         19.62496        9.98453       10.80825
H         21.21235       10.70325       10.47722
H         21.09438        9.00554       10.97718
H         17.24278        0.95635        3.98972
H         18.62854        1.95977        4.48570
H         19.17775        2.35185        2.03806
H         17.83210        1.29512        1.59118
H         18.92400       -0.62455        2.77134
H         20.23095        0.42442        3.31841
H         20.90315        0.85138        0.93730
H         19.59640       -0.18617        0.37232
H         20.61599       -2.15350        1.52271
H         21.88407       -1.13297        2.19735
H         22.71649       -0.60219       -0.10305
H         21.42931       -1.57286       -0.81276
H         22.33475       -3.62528        0.29967
H         23.59795       -2.67122        1.06905
H         23.27263       -3.02458       -1.98404
H         24.48544       -3.83325       -0.97248
H         24.54874       -2.07541       -1.19918
H          9.70184        1.27384        7.44372
