49

O          1.43320        0.51755        1.12765
C          0.42130        0.03846        0.32565
C         -0.43570        0.89687       -0.37097
C         -1.44272        0.36849       -1.17793
C         -1.59215       -1.01651       -1.29329
C         -0.73019       -1.86210       -0.59137
C          0.28408       -1.36159        0.23231
C          1.18289       -2.27663        1.02350
N          2.56102       -2.30703        0.50357
C          3.48453       -3.05138        1.34376
C          4.83724       -3.21030        0.64142
C          5.80247       -4.07438        1.48707
C          7.10158       -4.31942        0.79200
N          8.03849       -3.32627        0.76106
I          7.85065       -1.54782        1.94453
C          9.20362       -3.40441        0.06823
C          9.50217       -4.54688       -0.64392
C          8.60815       -5.61522       -0.59603
C          7.40845       -5.52886        0.11573
C          6.51538       -6.74351        0.15611
C          5.32388       -6.74742       -0.88356
N          4.10175       -6.39255       -0.14450
N          5.51584       -5.70828       -1.89419
N          5.36796       -8.06885       -1.53102
H          1.37479        1.48649        1.15872
H         -0.31177        1.97898       -0.27820
H         -2.11117        1.04325       -1.71306
H         -2.37797       -1.43440       -1.92163
H         -0.84863       -2.94461       -0.67023
H          0.78175       -3.30120        0.98342
H          1.16243       -1.96511        2.08982
H          2.88971       -1.34678        0.38405
H          3.05547       -4.05260        1.51660
H          3.63416       -2.59203        2.34676
H          5.27696       -2.21771        0.45291
H          4.68767       -3.69202       -0.33113
H          5.31244       -5.03581        1.67524
H          5.99259       -3.59826        2.46283
H          9.86327       -2.54163        0.12015
H         10.43436       -4.59744       -1.20437
H          8.84364       -6.54254       -1.12051
H          6.10952       -6.89117        1.16593
H          7.15118       -7.61001       -0.06392
H          3.88315       -7.12610        0.53182
H          3.30303       -6.34597       -0.78252
H          6.04961       -6.09066       -2.67534
H          4.62225       -5.38164       -2.26229
H          5.32647       -8.82968       -0.84846
H          4.56938       -8.18342       -2.15963
