76

C          5.59829        2.90315        0.12672
C          4.78177        1.62803        0.09150
O          5.18211        0.86479       -1.06329
C          4.51275       -0.36933       -1.18223
C          5.04830       -1.02953       -2.45630
N          6.50481       -1.16377       -2.36151
C          6.99441       -2.35783       -2.14128
S          5.82952       -3.61086       -2.14078
C          4.49638       -2.44973       -2.73385
C          4.19553       -2.73596       -4.20936
C          3.01116       -1.92937       -4.76218
C          2.78703       -2.19848       -6.25526
C          1.69054       -1.33145       -6.88146
C          1.50285       -1.60394       -8.37764
C          0.47873       -0.68786       -9.05487
C          0.30806       -0.98092      -10.54899
C         -0.68288       -0.05177      -11.25725
C         -0.84536       -0.36537      -12.74825
C         -1.83048        0.55612      -13.47426
C         -1.98880        0.22837      -14.96357
C         -2.97905        1.14393      -15.68769
C          8.45674       -2.56627       -1.89645
C          9.34257       -1.60345       -2.70711
O          9.00925       -0.26307       -2.36404
Si         9.80664        1.11902       -2.99609
C          9.54359        1.15091       -4.85329
C          8.92357        2.51775       -2.12879
C         11.62543        1.02317       -2.56797
H          5.30115        3.51292        0.99002
H          5.43816        3.49818       -0.78206
H          6.66991        2.68292        0.21704
H          3.70037        1.84673        0.02287
H          4.94674        1.02211        1.00177
H          3.41710       -0.23939       -1.28412
H          4.69839       -1.01897       -0.30202
H          4.82464       -0.36775       -3.30617
H          7.17180       -0.36973       -2.34450
H          3.61500       -2.64843       -2.10740
H          3.98992       -3.81138       -4.32684
H          5.10086       -2.52955       -4.80562
H          3.18004       -0.84826       -4.61761
H          2.09845       -2.17510       -4.19352
H          2.54476       -3.26501       -6.40054
H          3.73368       -2.02693       -6.79702
H          1.93973       -0.26594       -6.73220
H          0.73672       -1.49777       -6.35174
H          1.20408       -2.65693       -8.52118
H          2.47600       -1.49537       -8.88865
H          0.78553        0.36447       -8.92037
H         -0.49676       -0.78582       -8.54715
H         -0.01796       -2.02790      -10.67858
H          1.29136       -0.90920      -11.04685
H         -0.35288        0.99516      -11.13649
H         -1.66650       -0.11733      -10.75975
H         -1.17450       -1.41308      -12.86451
H          0.14094       -0.30429      -13.24159
H         -1.50096        1.60462      -13.36457
H         -2.81726        0.49797      -12.98159
H         -2.31163       -0.82121      -15.07000
H         -1.00247        0.29077      -15.45417
H         -3.98417        1.07478      -15.24544
H         -3.06642        0.88212      -16.75109
H         -2.66594        2.19719      -15.62994
H          8.72855       -3.60737       -2.11600
H          8.63873       -2.40231       -0.82034
H          9.19725       -1.78406       -3.78776
H         10.39517       -1.82569       -2.46656
H          8.47519        1.17364       -5.11119
H         10.00055        0.28528       -5.35332
H         10.00521        2.05145       -5.28353
H          7.83951        2.48760       -2.30741
H          9.29417        3.48676       -2.49228
H          9.09453        2.47972       -1.04434
H         12.12607        0.17907       -3.06277
H         11.78172        0.93237       -1.48442
H         12.13384        1.93910       -2.90264
