73

C         15.22016       -3.24465        3.45923
C         13.98153       -2.61129        2.82107
C         14.23263       -2.07586        1.40647
C         12.98590       -1.46938        0.75471
C         13.22889       -0.92682       -0.65761
C         11.95581       -0.38734       -1.31994
C         12.19874        0.17693       -2.72588
C         10.90919        0.62265       -3.39091
O         11.23540        1.20780       -4.67711
C         10.10726        1.52501       -5.43030
N         10.59350        1.98430       -6.73949
C         10.56528        3.25955       -7.17206
N         11.20202        3.27754       -8.33963
N         11.65736        2.03490       -8.67887
C         11.28185        1.24455       -7.69337
C         11.54217       -0.22041       -7.64983
C         10.28041       -1.05287       -7.94097
O          9.70938       -0.54932       -9.12666
C          8.66740       -1.36868       -9.66995
C          8.42648       -0.96044      -11.10738
O          9.52300       -1.39723      -11.88648
C          9.42711       -1.01865      -13.25566
C         10.64940       -1.57860      -13.96995
O         10.57175       -1.17320      -15.32438
C         11.63683       -1.69000      -16.10911
C         11.42080        4.37137       -9.28723
C         11.35486        5.76032       -8.64749
O         10.98777        5.97909       -7.50829
O         11.74099        6.65642       -9.55095
C         11.68073        8.08043       -9.15963
C         10.31237        8.66262       -9.45160
H         15.00679       -3.61343        4.47164
H         16.04497       -2.52074        3.53689
H         15.58390       -4.09663        2.86571
H         13.61603       -1.78911        3.45943
H         13.16456       -3.35204        2.78728
H         14.61557       -2.89360        0.77044
H         15.03612       -1.31893        1.44007
H         12.59633       -0.65793        1.39419
H         12.18889       -2.23297        0.71797
H         13.65668       -1.72515       -1.28889
H         13.99056       -0.12878       -0.62007
H         11.51534        0.39728       -0.68110
H         11.20621       -1.19623       -1.36997
H         12.68341       -0.58360       -3.35951
H         12.88820        1.03452       -2.67511
H         10.38106        1.37549       -2.77747
H         10.22480       -0.23256       -3.54682
H          9.50763        2.34787       -4.99824
H          9.44630        0.65323       -5.58977
H         10.14645        4.12293       -6.66706
H         11.96042       -0.49748       -6.67166
H         12.29445       -0.42538       -8.42165
H          9.56320       -1.00529       -7.09494
H         10.57933       -2.11169       -8.05167
H          7.73829       -1.25105       -9.08112
H          8.96992       -2.43091       -9.63857
H          8.30871        0.14048      -11.17062
H          7.47961       -1.41820      -11.45731
H          9.40198        0.08354      -13.35786
H          8.50423       -1.42195      -13.71367
H         10.66107       -2.68297      -13.88401
H         11.57274       -1.19618      -13.49009
H         11.48216       -1.33331      -17.13412
H         11.64186       -2.79547      -16.10726
H         12.61858       -1.33246      -15.74622
H         10.66429        4.30798      -10.08385
H         12.40002        4.20165       -9.75079
H         12.46626        8.53846       -9.77097
H         11.94835        8.15099       -8.09823
H         10.04603        8.54213      -10.50955
H         10.32763        9.73816       -9.22746
H          9.53587        8.20166       -8.82780
