62

C          0.85503        0.43590       -0.32958
C          2.31255        0.42567        0.13727
C          3.21129        1.37234       -0.66530
C          4.66895        1.37951       -0.19301
C          5.55144        2.33387       -1.00565
C          6.96953        2.40342       -0.47161
O          7.68104        3.43067       -1.20485
C          8.82360        3.93342       -0.56512
C          8.91287        5.40350       -0.90652
N         10.01348        5.80553       -1.58590
C         10.23364        7.05785       -2.04978
C          9.27079        8.03674       -1.85021
C          8.11165        7.65812       -1.15234
C          7.90502        6.35891       -0.66323
C          6.64920        6.01915        0.04865
C          6.66699        5.47232        1.34258
C          5.47091        5.16047        1.98917
C          4.24743        5.38992        1.35308
C          4.22231        5.95233        0.07394
C          5.41523        6.27199       -0.57487
C          9.49789        9.44205       -2.33966
C         10.04081       10.32929       -1.20007
C         10.37739       11.77305       -1.59905
C         11.87950       12.09081       -1.95436
C         12.58336       11.39297       -3.18098
C         12.04433       11.66316       -4.63426
F         11.90738       12.97151       -4.86930
F         12.91615       11.14182       -5.51324
F         10.84889       11.05445       -4.81998
F         13.87485       11.78746       -3.15638
F         12.54859       10.03161       -2.98212
F         11.99717       13.42775       -2.12328
F         12.61884       11.72196       -0.86367
F          9.58703       12.20565       -2.63179
F         10.11078       12.58074       -0.52457
H          0.24045       -0.25777        0.25952
H          0.77038        0.13941       -1.38546
H          0.41022        1.43770       -0.23100
H          2.71498       -0.59888        0.07029
H          2.36042        0.69834        1.20542
H          2.80725        2.39894       -0.60687
H          3.17366        1.09450       -1.73296
H          5.07704        0.35563       -0.24311
H          4.70249        1.67034        0.87190
H          5.12485        3.34768       -0.97678
H          5.57266        2.02572       -2.06298
H          7.50061        1.44131       -0.58501
H          6.96474        2.67182        0.59999
H          9.75004        3.41713       -0.89620
H          8.77004        3.80691        0.53105
H         10.71899        5.09126       -1.77865
H         11.17042        7.22548       -2.57917
H          7.33543        8.40488       -0.97007
H          7.61444        5.31740        1.86127
H          5.49504        4.74574        2.99712
H          3.31478        5.13808        1.85811
H          3.27079        6.13570       -0.42540
H          5.39056        6.68318       -1.58541
H          8.55268        9.85910       -2.71226
H         10.19190        9.42090       -3.18660
H         10.93140        9.87978       -0.74014
H          9.28491       10.41520       -0.40600
