52

C          2.31211        2.57059        0.43731
C          1.31500        1.41192        0.42066
N          0.96764        0.94168        1.77719
C         -0.07841        1.44567        2.45205
S         -1.05389        2.67994        1.81477
S         -0.30577        0.73475        4.06872
C         -1.77091        1.59484        4.68616
C         -3.10699        0.96090        4.24916
C         -4.23391        1.98903        4.18698
N         -4.09678        2.83869        2.94753
C         -4.90218        2.23081        1.74945
O         -5.89542        1.61972        2.00403
C         -4.30264        2.50445        0.41455
C         -4.54054        4.30521        3.13061
C         -3.85350        4.97104        4.29064
C         -2.51163        5.35905        4.14344
C         -1.81482        5.94386        5.19824
C         -2.47041        6.15879        6.41282
C         -3.81109        5.79991        6.55646
C         -4.53236        5.20433        5.51022
C         -5.99181        4.87020        5.71169
C          1.85055       -0.10719        2.32772
C          1.39843       -1.52170        1.96058
H          2.56172        2.85312       -0.59384
H          3.24674        2.29668        0.94506
H          1.88545        3.44758        0.93984
H          1.72929        0.54474       -0.11259
H          0.38401        1.70584       -0.07860
H         -1.67810        2.64517        4.37536
H         -1.65878        1.56584        5.77921
H         -3.39573        0.17074        4.95553
H         -2.99645        0.46423        3.27323
H         -4.19424        2.66634        5.04788
H         -5.22528        1.52363        4.14295
H         -3.06685        2.83362        2.66221
H         -4.16436        3.58241        0.24795
H         -4.94694        2.08625       -0.36386
H         -3.29466        2.05758        0.37448
H         -5.63079        4.28129        3.24084
H         -4.29527        4.80837        2.18666
H         -2.00329        5.19684        3.19033
H         -0.77351        6.23919        5.07066
H         -1.94124        6.61819        7.24813
H         -4.31975        5.99095        7.50284
H         -6.30356        5.12310        6.73161
H         -6.21638        3.80371        5.56033
H         -6.63886        5.43719        5.02541
H          1.91678        0.02129        3.41723
H          2.85655        0.09315        1.93387
H          0.40860       -1.74645        2.37697
H          2.11206       -2.25154        2.36496
H          1.35739       -1.66044        0.87223
