84

C          0.94202        0.40352       -0.57505
C          2.45632        0.46724       -0.35846
C          3.00325       -0.71441        0.45021
C          4.51599       -0.65515        0.68668
C          5.04517       -1.80499        1.55020
C          6.55393       -1.74002        1.81009
C          7.05839       -2.85314        2.73404
C          8.56150       -2.78741        3.02308
C          9.03033       -3.85814        4.01392
C         10.53374       -3.81670        4.30595
C         10.96985       -4.87034        5.32788
C         12.49343       -4.87001        5.58644
C         12.92672       -6.02497        6.46234
C         13.04928       -5.74072        7.82242
C         13.35084       -6.70141        8.80614
C         13.52600       -8.01151        8.43298
C         13.41719       -8.36391        7.06233
C         13.13694       -7.38167        6.03221
C         13.10745       -7.87826        4.67017
C         12.91029       -7.00682        3.44643
C         12.80728       -7.68937        2.07824
C         12.56926       -6.64466        0.98121
C         12.41723       -7.25764       -0.41983
N         12.19021       -6.25477       -1.44399
C         10.95912       -5.73423       -1.78997
C         11.16356       -4.70824       -2.69356
C         12.56805       -4.59354       -2.89479
C         13.17684       -5.55441       -2.10904
C         13.28147       -9.22741        4.44914
N         13.51368      -10.13111        5.46068
C         13.59703       -9.71335        6.72769
C         13.66537      -11.53963        5.14016
C         14.63719      -11.92784        4.21425
C         14.77761      -13.28457        3.91789
C         13.95647      -14.23031        4.53959
C         12.98838      -13.82388        5.46222
C         12.83442      -12.47055        5.76876
H          0.57893        1.26677       -1.14927
H          0.40165        0.39101        0.38301
H          0.65509       -0.50480       -1.12552
H          2.71568        1.40773        0.15652
H          2.96779        0.50813       -1.33496
H          2.74981       -1.65751       -0.06550
H          2.48462       -0.75687        1.42434
H          4.77140        0.30550        1.16796
H          5.03991       -0.65324       -0.28538
H          4.79715       -2.76865        1.07087
H          4.51169       -1.80477        2.51743
H          6.80408       -0.76047        2.25410
H          7.09628       -1.78277        0.84929
H          6.81391       -3.83560        2.29241
H          6.50432       -2.80712        3.68827
H          8.81392       -1.78913        3.42128
H          9.12409       -2.88669        2.07810
H          8.76342       -4.85783        3.62629
H          8.47276       -3.74484        4.96012
H         10.81518       -2.81384        4.66968
H         11.09482       -3.96217        3.36498
H         10.64372       -5.86956        4.99037
H         10.44964       -4.70706        6.28607
H         12.76036       -3.93690        6.10294
H         13.03680       -4.84298        4.63598
H         12.89684       -4.70699        8.13807
H         13.43536       -6.40172        9.85051
H         13.74690       -8.78729        9.16685
H         13.74483       -6.28701        3.41178
H         12.00445       -6.40252        3.58676
H         11.97673       -8.41646        2.07599
H         13.72789       -8.25372        1.85005
H         13.40200       -5.92352        0.96162
H         11.66154       -6.06332        1.21038
H         11.57462       -7.96607       -0.43815
H         13.32003       -7.82741       -0.68916
H         10.04481       -6.15065       -1.37843
H         10.38663       -4.11996       -3.17106
H         13.07668       -3.90074       -3.55734
H         14.22375       -5.81218       -1.98095
H         13.22715       -9.66804        3.45900
H         13.82528      -10.46923        7.47757
H         15.29225      -11.18684        3.75463
H         15.54006      -13.60261        3.20707
H         14.07188      -15.28806        4.30346
H         12.34167      -14.55987        5.93922
H         12.06241      -12.14058        6.46507
