79

C          1.05321       -2.00094       -0.56288
C          2.57797       -1.87148       -0.53924
C          3.12967       -1.11808       -1.75304
C          4.65394       -0.96580       -1.75612
C          5.17014       -0.19712       -2.97594
C          6.69159       -0.02414       -3.01348
C          7.15994        0.76088       -4.24347
C          8.68440        0.91598       -4.33014
C          9.08500        1.69442       -5.56835
O         10.53756        1.72913       -5.66416
C         10.98226        2.40227       -6.81005
P         12.81325        2.36985       -6.72402
C         13.37987        0.64906       -6.45315
O         14.77572        0.71303       -6.33745
C         15.36221       -0.59749       -6.09279
C         16.86688       -0.46435       -5.95858
C         17.53028       -1.84065       -5.80403
C         19.05314       -1.77398       -5.64690
C         19.69951       -3.15995       -5.55271
C         21.22161       -3.12700       -5.38516
C         21.84806       -4.52282       -5.30464
C         23.36868       -4.51314       -5.12461
C         23.98045       -5.91596       -5.04793
C         25.49780       -5.90761       -4.85224
C         13.59834        3.10299       -8.18717
C         13.14279        4.53240       -8.54826
C         13.47895        5.59838       -7.50334
H          0.67901       -2.54300        0.31599
H          0.71455       -2.54356       -1.45806
H          0.57097       -1.01217       -0.57490
H          3.03452       -2.87455       -0.49474
H          2.89129       -1.35381        0.38293
H          2.66573       -0.11691       -1.79834
H          2.81505       -1.63769       -2.67540
H          5.12365       -1.96444       -1.72382
H          4.97318       -0.44899       -0.83424
H          4.69219        0.79774       -3.00443
H          4.84349       -0.71542       -3.89461
H          7.17642       -1.01565       -3.00394
H          7.02876        0.49117       -2.09771
H          6.68705        1.75788       -4.23713
H          6.79458        0.25460       -5.15360
H          9.15985       -0.07739       -4.36136
H          9.06702        1.42993       -3.43438
H          8.71055        2.73354       -5.52926
H          8.68681        1.21705       -6.48238
H         10.65594        3.46151       -6.85510
H         10.67122        1.91484       -7.75794
H         13.18170        3.09282       -5.56827
H         13.03511        0.03813       -7.31444
H         12.86948        0.27387       -5.54447
H         15.09724       -1.25970       -6.93747
H         14.91458       -1.01550       -5.17288
H         17.10207        0.17104       -5.09025
H         17.26595        0.04503       -6.85013
H         17.28580       -2.46106       -6.68355
H         17.09933       -2.36262       -4.93245
H         19.30349       -1.18810       -4.74576
H         19.48644       -1.22395       -6.50006
H         19.44721       -3.73825       -6.45898
H         19.25334       -3.71291       -4.70760
H         21.47715       -2.55795       -4.47422
H         21.67130       -2.57151       -6.22668
H         21.59408       -5.08741       -6.21910
H         21.38783       -5.07914       -4.46913
H         23.62531       -3.95357       -4.20779
H         23.83381       -3.95784       -5.95819
H         23.72967       -6.46976       -5.96843
H         23.50526       -6.47179       -4.22202
H         26.00324       -5.38865       -5.68032
H         25.90298       -6.92751       -4.80318
H         25.77678       -5.39310       -3.92079
H         13.39807        2.39960       -9.01159
H         14.68079        3.05771       -7.98528
H         12.06427        4.53558       -8.76878
H         13.63954        4.77908       -9.49790
H         12.93861        5.45200       -6.55590
H         13.20247        6.59271       -7.87538
H         14.55461        5.61660       -7.27874
