59

C          7.48427       -3.44404      -11.28866
C          7.38262       -4.15781       -9.93896
C          8.19074       -3.46939       -8.83436
C          8.08648       -4.15859       -7.47024
C          8.91017       -3.46642       -6.38023
C          8.75475       -4.09547       -4.99182
C          9.60452       -3.39070       -3.92862
C          9.35761       -3.84479       -2.50076
O          9.67982       -5.27998       -2.30908
C         10.92138       -5.57559       -1.94957
O         11.84607       -4.79748       -1.77888
C         11.08691       -7.08470       -1.74113
P         12.85615       -7.45583       -1.51699
C         13.52573       -6.75109        0.03963
C         14.96374       -6.94433        0.06316
C         16.16209       -7.10261        0.03662
C         13.18792       -9.24136       -1.56645
C         12.57719       -9.87737       -2.82567
O         12.78367       -8.98620       -3.90570
Si        12.57642       -9.41358       -5.55400
C         10.76627       -9.82296       -5.84077
C         13.10118       -7.87007       -6.46966
C         13.67548      -10.88264       -5.93984
H          6.89616       -3.95716      -12.06169
H          8.52659       -3.39857      -11.63819
H          7.11386       -2.41060      -11.22013
H          7.72620       -5.20095      -10.04445
H          6.32519       -4.21648       -9.63061
H          7.85269       -2.42278       -8.73724
H          9.25139       -3.41637       -9.13832
H          8.41034       -5.21047       -7.56408
H          7.02728       -4.19391       -7.16073
H          8.61809       -2.40333       -6.32532
H          9.97598       -3.47069       -6.66938
H          9.02172       -5.16498       -5.03805
H          7.69288       -4.05923       -4.69272
H          9.38311       -2.30968       -3.93989
H         10.67732       -3.47762       -4.16356
H          8.29387       -3.79687       -2.23581
H          9.95272       -3.27100       -1.77975
H         10.71567       -7.65132       -2.60680
H         10.51736       -7.41463       -0.85861
H         13.56092       -6.83068       -2.55933
H         13.02417       -7.23825        0.89226
H         13.25337       -5.68372        0.03628
H         17.22745       -7.21855        0.03692
H         12.80852       -9.70232       -0.64195
H         14.28573       -9.32635       -1.56058
H         11.49974      -10.06749       -2.66376
H         13.06039      -10.85546       -2.99275
H         10.11200       -8.97313       -5.59854
H         10.43499      -10.69003       -5.25098
H         10.59734      -10.07326       -6.89849
H         12.48106       -7.00514       -6.19567
H         12.99485       -8.02005       -7.55408
H         14.15185       -7.61771       -6.27180
H         13.39015      -11.78663       -5.38333
H         14.73155      -10.66527       -5.72684
H         13.60000      -11.13073       -7.00896
