42

C          4.86693       -2.92994       -0.36314
C          4.06733       -1.72230        0.07652
O          4.69927       -1.16126        1.25361
C          4.05235       -0.01165        1.78883
C          4.90368        0.41248        2.98276
N          6.37105        0.30820        2.56432
C          6.89856        1.52126        1.82655
C          7.26641        2.70979        2.69617
F          6.14003        3.21585        3.34940
C          7.25768       -0.17814        3.68638
C          7.11954       -1.70282        3.85869
O          7.41487       -2.08980        5.20320
C          6.36129       -1.95705        6.08815
O          5.28961       -1.50051        5.74012
C          6.74388       -2.41976        7.46696
C          7.82007       -1.52672        8.12644
C          7.39793       -0.06300        8.27290
H          4.39585       -3.38490       -1.24433
H          4.90475       -3.68797        0.42997
H          5.89361       -2.65244       -0.63888
H          3.03175       -1.99929        0.33627
H          4.02874       -0.94960       -0.71149
H          3.03237       -0.24157        2.14110
H          3.97239        0.78337        1.02291
H          4.77585       -0.27915        3.82591
H          4.69949        1.43454        3.31483
H          6.30695       -0.45391        1.84989
H          6.13264        1.80367        1.09217
H          7.79449        1.19724        1.27704
H          7.67328        3.49793        2.04468
H          8.01756        2.46636        3.46230
H          6.95748        0.34683        4.60107
H          8.29220        0.09577        3.44504
H          7.85041       -2.23229        3.23513
H          6.10595       -2.03468        3.58890
H          7.11835       -3.45181        7.39280
H          5.82381       -2.42697        8.06550
H          8.75471       -1.60102        7.55083
H          8.03344       -1.95299        9.11730
H          7.21899        0.41435        7.29618
H          8.17659        0.51957        8.78225
H          6.47118        0.03425        8.85655
