64

C          0.42118       -2.15095       -8.32152
C          1.31594       -3.14358       -7.57554
C          2.68523       -2.56368       -7.20258
C          3.59487       -3.55717       -6.47305
C          4.96332       -2.97565       -6.10462
C          5.89604       -3.98813       -5.43048
C          7.26468       -3.39529       -5.07484
C          8.21762       -4.42959       -4.50393
O          9.47191       -3.78253       -4.21829
C         10.47788       -4.66095       -3.76408
C         10.97198       -5.62586       -4.83142
C         10.98608       -6.97659       -4.54831
N         11.43157       -7.85712       -5.47132
C         11.87554       -7.54305       -6.69890
C         11.89301       -6.17779       -7.08140
C         11.42668       -5.19731       -6.11414
C         11.44167       -3.82663       -6.48252
C         11.89139       -3.43822       -7.72512
C         12.34279       -4.39057       -8.67600
C         12.34048       -5.73164       -8.35066
C         12.81746       -3.93995      -10.03058
O         13.18688       -5.05964      -10.79455
C         13.62211       -4.74128      -12.12694
C         13.96364       -6.03987      -12.83958
C         14.43001       -5.81165      -14.27980
C         12.27694       -8.83138       -7.43633
O         12.11642       -9.86542       -6.80048
C         12.82584       -8.84116       -8.82828
H         -0.55136       -2.59536       -8.57272
H          0.88768       -1.82039       -9.26160
H          0.22881       -1.25291       -7.71591
H          1.46119       -4.04633       -8.19307
H          0.80548       -3.48446       -6.65907
H          2.54272       -1.66698       -6.57422
H          3.19214       -2.21113       -8.11849
H          3.73726       -4.45137       -7.10569
H          3.09049       -3.91270       -5.55767
H          4.82660       -2.10544       -5.43998
H          5.45144       -2.58593       -7.01531
H          6.03181       -4.85497       -6.10152
H          5.41415       -4.38201       -4.51915
H          7.14763       -2.57642       -4.34768
H          7.72650       -2.95427       -5.97373
H          8.37116       -5.25005       -5.23202
H          7.81982       -4.87774       -3.57324
H         10.13999       -5.24298       -2.88533
H         11.31627       -4.02703       -3.43289
H         10.65041       -7.39457       -3.60052
H         11.45707       -8.88100       -5.30432
H         11.06676       -3.08689       -5.77833
H         11.89602       -2.37768       -7.98598
H         12.69257       -6.42557       -9.10442
H         13.66807       -3.23648       -9.90276
H         12.00702       -3.36224      -10.52435
H         14.49996       -4.06966      -12.07839
H         12.81434       -4.20236      -12.65763
H         13.07308       -6.68815      -12.82831
H         14.74507       -6.56204      -12.26524
H         13.65901       -5.30716      -14.87979
H         14.65890       -6.76589      -14.77046
H         15.33893       -5.19449      -14.31724
H         13.75009       -8.24835       -8.89407
H         12.10656       -8.40705       -9.53893
H         13.03425       -9.87835       -9.10826
