59

C         11.24773       -0.60570        1.36763
C         10.72353        0.81874        1.16861
C          9.20295        0.93128        1.34691
C          8.70263        2.35920        1.13874
O          7.26952        2.49965        1.22100
C          6.70597        2.43933        2.50440
N          7.01988        3.58264        3.35681
C          7.98053        3.58541        4.31270
N          8.66582        2.49677        4.70982
N          8.14322        4.79018        4.84726
C          7.04845        5.67892        4.41622
C          6.66959        5.01302        3.06093
C          5.23646        5.25176        2.54886
C          4.91610        6.74278        2.69367
O          5.73941        7.62982        2.55824
O          3.60602        6.93116        2.93473
C          3.15021        8.32283        3.02341
C          3.29585        8.85791        4.43688
C          5.04401        4.91984        1.05024
C          5.92982        5.73762        5.48118
C          6.43059        5.88733        6.92606
C          7.31177        7.12564        7.22634
C          8.63588        6.76903        7.90707
N          9.54417        6.03465        6.98038
H         12.33448       -0.65260        1.22021
H         10.78605       -1.30394        0.65509
H         11.03457       -0.97714        2.38109
H         10.99202        1.17395        0.16019
H         11.22940        1.50259        1.87201
H          8.93173        0.55308        2.35181
H          8.68525        0.26924        0.63536
H          8.94654        2.69754        0.12269
H          9.19454        3.06424        1.83538
H          6.98525        1.52622        3.05794
H          5.62067        2.40559        2.35257
H          8.73400        1.68004        4.11458
H          9.36850        2.59715        5.43098
H          8.72549        5.04031        5.69407
H          7.45153        6.67880        4.22185
H          7.37463        5.37696        2.29403
H          4.51426        4.68306        3.15285
H          2.09948        8.27016        2.71477
H          3.71943        8.91967        2.29957
H          2.77990        8.21123        5.15897
H          2.84419        9.85760        4.49575
H          4.35157        8.95181        4.72321
H          5.69867        5.55280        0.43607
H          4.00483        5.11491        0.75852
H          5.27652        3.87791        0.81043
H          5.32117        4.82113        5.42512
H          5.26017        6.57359        5.23499
H          6.98239        4.97546        7.20559
H          5.54914        5.89847        7.58181
H          6.76907        7.82435        7.87804
H          7.52484        7.69623        6.30694
H          8.43983        6.11021        8.76618
H          9.11666        7.67821        8.30302
H         10.29260        5.59291        7.51832
H         10.01567        6.71310        6.37568
