65

C          1.15473       -0.44335        0.27569
C          2.65118       -0.39936       -0.04489
C          3.10345        0.93366       -0.65177
C          4.59739        0.98014       -0.98826
C          5.06259        2.33267       -1.53781
C          6.55451        2.36842       -1.88387
C          7.04584        3.74713       -2.33952
C          8.54487        3.76213       -2.66675
C          9.05794        5.15199       -2.99646
O         10.47568        5.04907       -3.26360
C         11.09672        6.30657       -3.44407
C         12.55851        6.01440       -3.52185
N         13.46089        6.23852       -2.55052
N         14.63138        5.78381       -2.94724
N         14.47077        5.26035       -4.16101
N         13.15877        5.38346       -4.55606
C         12.62213        4.92007       -5.80288
C         12.37043        3.55393       -5.96020
C         11.80635        3.10729       -7.15050
C         11.48739        4.02937       -8.15481
C         11.73522        5.39117       -7.98394
C         12.31988        5.86542       -6.80475
O         12.48081        7.20997       -6.63462
C         13.82895        7.73274       -6.53279
C         15.49379        4.70393       -4.92559
N         15.63462        4.75640       -6.21783
N         16.80087        4.08578       -6.49274
C         17.29342        3.68080       -5.33203
O         16.48390        4.04601       -4.26730
S         18.75555        2.81311       -5.10889
C         18.78766        2.53410       -3.29035
C         20.06173        1.75699       -2.96702
H          0.86566       -1.40648        0.71804
H          0.54752       -0.29857       -0.63034
H          0.87549        0.34653        0.98896
H          2.90466       -1.21916       -0.73848
H          3.23092       -0.59250        0.87387
H          2.86126        1.75219        0.04923
H          2.51642        1.13704       -1.56496
H          4.83279        0.18569       -1.71853
H          5.18183        0.73866       -0.08264
H          4.84194        3.12033       -0.79604
H          4.47177        2.58918       -2.43462
H          6.76750        1.62335       -2.67036
H          7.13972        2.05264       -1.00244
H          6.83484        4.48473       -1.54592
H          6.46844        4.07387       -3.22133
H          8.75318        3.09190       -3.51652
H          9.11719        3.37487       -1.80836
H          8.90015        5.84369       -2.14809
H          8.55053        5.57644       -3.88315
H         10.94175        6.98364       -2.58460
H         10.75914        6.82337       -4.36354
H         12.59810        2.86504       -5.14643
H         11.60356        2.04625       -7.28895
H         11.04010        3.68209       -9.08632
H         11.48658        6.11688       -8.75818
H         13.78513        8.75225       -6.92970
H         14.52801        7.12683       -7.12251
H         14.16150        7.78127       -5.48317
H         17.88706        1.96873       -3.01846
H         18.76781        3.51179       -2.79281
H         20.09248        0.78914       -3.48479
H         20.09341        1.56143       -1.88724
H         20.96323        2.32481       -3.23221
