59

C          0.99504       -0.47263        0.26221
C          1.90485        0.49716        0.37259
C          2.80987        0.64193        1.56173
N          4.24971        0.51093        1.16947
C          5.04497        1.60074        1.09323
C          6.35225        1.47435        0.66610
C          6.88560        0.22271        0.31736
C          6.03756       -0.91300        0.43909
C          4.72379       -0.71727        0.84860
C          6.54805       -2.29166        0.09462
C          5.75098       -3.50102        0.59127
O          4.76452       -3.46910        1.30546
O          6.32300       -4.61712        0.12688
C          5.69876       -5.88693        0.52550
C          6.53547       -7.01668       -0.04451
C          5.94450       -8.38424        0.31561
C          8.30085        0.09439       -0.18208
C          9.08447        1.39793       -0.33952
C         10.48422        1.19284       -0.92657
N         11.13921        2.48165       -1.07496
C         12.42842        2.43796       -1.76715
C         13.03450        3.81686       -1.91969
C         12.28261        4.99072       -1.78996
C         12.86681        6.25300       -1.92580
C         14.23139        6.35539       -2.20061
C         15.00133        5.20038       -2.34503
C         14.40718        3.94171       -2.21053
O         15.12315        2.77725       -2.35972
H          0.33524       -0.53396       -0.60268
H          0.86179       -1.22915        1.03882
H          2.01548        1.25041       -0.41295
H          2.60580       -0.12514        2.32000
H          2.70836        1.62860        2.03463
H          4.59964        2.55276        1.37680
H          6.96110        2.37351        0.60208
H          4.03170       -1.54960        0.95316
H          7.57402       -2.41426        0.47541
H          6.65072       -2.39082       -0.99946
H          4.66902       -5.89387        0.13847
H          5.65103       -5.91344        1.62373
H          7.56332       -6.93393        0.34074
H          6.59509       -6.90540       -1.13807
H          5.89798       -8.53198        1.40411
H          6.55874       -9.19163       -0.10168
H          4.92649       -8.50310       -0.08260
H          8.27113       -0.43943       -1.14950
H          8.84556       -0.59227        0.49295
H          9.18283        1.89537        0.64100
H          8.54740        2.09722       -0.99946
H         10.40127        0.73781       -1.92854
H         11.05406        0.46591       -0.30331
H         11.27042        2.91414       -0.15727
H         12.25768        1.99543       -2.76554
H         13.16446        1.77487       -1.26994
H         11.21504        4.90077       -1.58662
H         12.25841        7.15099       -1.81858
H         14.70288        7.33292       -2.30571
H         16.07004        5.27161       -2.56410
H         16.05045        3.00152       -2.53961
