75

C          1.55710        1.62387       -3.07544
C          2.74524        1.11640       -2.25475
C          3.53296        0.00323       -2.95387
C          4.72497       -0.51328       -2.14186
C          5.50164       -1.63008       -2.84568
C          6.68065       -2.16927       -2.02785
C          7.43919       -3.29145       -2.74826
C          8.52449       -3.91055       -1.88539
O          9.16922       -4.95794       -2.64422
C         10.01550       -5.77638       -1.86449
C         10.53284       -6.83099       -2.78788
N         10.62765       -6.63576       -4.14278
C         11.11802       -7.76854       -4.70212
N         11.30017       -8.60189       -3.66981
N         10.94665       -8.03726       -2.47443
C         11.79466       -9.98229       -3.71538
C         13.32776      -10.03852       -3.76458
C         13.85834      -11.43937       -4.10815
P         13.33838      -12.00858       -5.76604
O         13.08841      -10.90462       -6.73421
O         14.45429      -13.00021       -6.33286
C         14.83866      -14.23222       -5.64016
C         15.00268      -15.33587       -6.66374
O         12.05864      -12.90725       -5.39002
C         11.30135      -13.58219       -6.45095
C         10.82372      -14.91952       -5.92717
C         11.32505       -8.04384       -6.14111
C          9.96670       -8.39803       -6.83741
C         10.20737       -8.95525       -8.26502
N         10.44665      -10.39710       -8.15331
O          9.26480       -9.35383       -6.07371
H          1.01304        2.41829       -2.54677
H          0.84140        0.81528       -3.28520
H          1.88455        2.03334       -4.04257
H          2.38833        0.74839       -1.27792
H          3.42448        1.95586       -2.03003
H          3.88951        0.37006       -3.93263
H          2.85253       -0.83743       -3.17766
H          4.36818       -0.87873       -1.16276
H          5.40812        0.32509       -1.91982
H          5.86946       -1.26250       -3.81981
H          4.81351       -2.46185       -3.07742
H          6.30653       -2.54152       -1.05819
H          7.37378       -1.34412       -1.79049
H          7.89129       -2.90345       -3.67588
H          6.73579       -4.08593       -3.04552
H          8.08971       -4.34975       -0.96870
H          9.28060       -3.16365       -1.57933
H          9.48477       -6.26372       -1.02587
H         10.86401       -5.20492       -1.43472
H         10.29592       -5.80160       -4.62336
H         11.33628      -10.45337       -4.59281
H         11.39330      -10.47128       -2.82028
H         13.73823       -9.71420       -2.79754
H         13.69104       -9.33137       -4.52461
H         13.55363      -12.19063       -3.36524
H         14.95769      -11.41698       -4.11494
H         14.07185      -14.48947       -4.89348
H         15.78328      -14.02297       -5.11693
H         14.05129      -15.55600       -7.16614
H         15.34812      -16.25288       -6.16663
H         15.74283      -15.05687       -7.42422
H         11.94591      -13.70168       -7.33517
H         10.46471      -12.92221       -6.72068
H         11.66832      -15.57787       -5.68370
H         10.21222      -15.41863       -6.69147
H         10.20829      -14.79338       -5.02706
H         12.02948       -8.88200       -6.25561
H         11.77264       -7.16087       -6.62225
H          9.35877       -7.47886       -6.89665
H         11.01687       -8.39584       -8.76508
H          9.28895       -8.80178       -8.84741
H         11.42526      -10.61733       -7.93519
H         10.18273      -10.88475       -9.00597
H          9.44153      -10.19458       -6.57949
