61

C          0.33352       -0.97207       -2.63363
C          1.77737       -1.27466       -2.22705
C          2.80017       -0.80138       -3.26750
C          4.25214       -1.09193       -2.86024
C          5.22604       -0.57847       -3.90701
O          6.62657       -0.73522       -3.45671
C          7.26744       -1.84051       -3.79180
O          6.80002       -2.74921       -4.48616
C          8.67797       -1.90530       -3.22680
C          9.70378       -2.40406       -4.25702
C          9.90590       -1.50118       -5.49618
C          9.41940       -2.32588       -6.71639
C          9.71167       -3.78706       -6.30162
N          9.24054       -3.73565       -4.85666
C         11.14311       -4.31006       -6.35752
C          9.85206       -1.83462       -8.13043
C          9.45327       -2.83585       -9.26212
C          7.97617       -3.04525       -9.67110
C          7.94587       -3.73178      -11.04649
C          7.11853       -3.84939       -8.68095
C          9.12124       -0.48386       -8.33757
O          9.35291       -0.03041       -9.66595
C         11.36948       -1.58060       -8.26037
H         -0.37611       -1.32018       -1.87170
H          0.07172       -1.46591       -3.58090
H          0.17317        0.10789       -2.76674
H          1.89860       -2.35874       -2.06531
H          1.99820       -0.79547       -1.25883
H          2.67523        0.28298       -3.43127
H          2.58409       -1.28402       -4.23629
H          4.39349       -2.17617       -2.72511
H          4.47455       -0.61038       -1.89483
H          5.13269        0.50421       -4.05559
H          5.11634       -1.09784       -4.86758
H          8.64739       -2.57847       -2.35383
H          8.98784       -0.92145       -2.85541
H         10.65584       -2.59368       -3.74667
H         10.96493       -1.23209       -5.58455
H          9.34391       -0.56543       -5.39285
H          8.31957       -2.25805       -6.70970
H          9.03969       -4.48421       -6.81763
H          9.56127       -4.54153       -4.30951
H          8.18104       -3.68141       -4.82218
H         11.87283       -3.62752       -5.90243
H         11.44051       -4.46596       -7.39977
H         11.21754       -5.28673       -5.85645
H          9.90725       -3.81972       -9.04774
H          9.97414       -2.47473      -10.15994
H          7.51424       -2.05190       -9.79581
H          8.41485       -4.72777      -11.00388
H          8.48354       -3.14022      -11.79956
H          6.91422       -3.86799      -11.39813
H          7.55220       -4.84652       -8.49792
H          6.11359       -4.01543       -9.09265
H          6.97812       -3.34824       -7.71274
H          9.49946        0.25369       -7.60582
H          8.03759       -0.61795       -8.15018
H          9.05754        0.88889       -9.73931
H         11.95328       -2.50879       -8.27201
H         11.76441       -0.93782       -7.46147
H         11.55826       -1.06519       -9.20936
