63

C          3.41967        7.53704        9.25951
C          3.63047        6.46928        8.18390
C          4.67975        6.86796        7.14103
C          4.92541        5.78843        6.08183
C          5.94632        6.21575        5.01825
C          6.22401        5.09052        4.03411
O          7.07789        5.53569        2.92042
C          8.39863        5.50181        3.10357
O          8.95894        5.12066        4.12247
C          9.10847        6.01958        1.85607
C         10.63589        5.90135        1.86216
O         11.07831        4.51126        1.88413
C         11.63151        4.20669        3.12854
N         12.29810        5.50364        3.57983
C         11.32891        6.55852        3.07990
C         13.72814        5.65248        3.09422
C         14.43098        6.86635        3.68519
C         15.94417        6.78151        3.40607
N         16.51303        5.58104        4.02789
C         11.26184        6.45853        0.54236
O         12.28567        7.11815        0.53520
O         10.56272        6.07579       -0.52114
C         11.09905        6.45059       -1.84406
C         12.08239        5.41358       -2.36052
C         12.59348        5.78377       -3.76025
C         13.59134        4.76249       -4.31012
H          2.65343        7.23136        9.98450
H          3.09665        8.49122        8.81714
H          4.34832        7.72825        9.81767
H          2.67471        6.26264        7.67396
H          3.93297        5.52093        8.65904
H          5.63146        7.10008        7.65092
H          4.36410        7.80279        6.64545
H          3.97137        5.53242        5.59041
H          5.27143        4.86510        6.57784
H          6.88741        6.51512        5.50583
H          5.56743        7.09251        4.46913
H          5.30816        4.75493        3.53230
H          6.71192        4.23578        4.52077
H          8.82113        7.07448        1.71134
H          8.71622        5.48884        0.97894
H         12.38634        3.41969        3.01193
H         10.87161        3.96152        3.88565
H         12.30959        5.52856        4.60792
H         11.89051        7.45044        2.78991
H         10.61912        6.76415        3.88459
H         13.68330        5.70159        1.99970
H         14.25898        4.74269        3.40746
H         14.27528        6.90008        4.77850
H         14.03949        7.80421        3.26546
H         16.40865        7.72665        3.73643
H         16.10511        6.71746        2.31930
H         16.73273        5.74823        5.01056
H         17.38889        5.31732        3.57827
H         11.56043        7.44271       -1.75414
H         10.20311        6.51257       -2.47380
H         11.59230        4.42760       -2.38736
H         12.93347        5.33800       -1.66538
H         13.06523        6.77937       -3.72435
H         11.73829        5.87316       -4.44981
H         14.47459        4.67779       -3.66050
H         13.94051        5.05043       -5.31020
H         13.13802        3.76391       -4.38991
