74

C          0.69459        1.07243        0.29543
C          2.21759        0.91856        0.28517
C          2.95257        2.15146       -0.25273
C          4.47824        2.01211       -0.23331
C          5.21698        3.21388       -0.83163
C          6.74298        3.07517       -0.78698
C          7.48293        4.20230       -1.51470
C          9.00947        4.06680       -1.46214
C          9.72666        5.11007       -2.32872
C         11.23808        5.01761       -2.22615
O         11.80953        5.97955       -3.14964
C         13.21202        6.05877       -3.08262
P         13.64763        7.33211       -4.33798
C         12.46522        8.72090       -4.32058
C         12.65919        9.31070       -2.93021
O         13.66733        8.90077       -2.31471
N         11.76463       10.18039       -2.43075
C         11.86557       10.56464       -1.00914
C         10.86019        9.81641       -0.11998
C         10.98889        8.28840       -0.17257
C          9.94358        7.57010        0.68407
C         10.58129       10.61723       -3.16938
C         15.41700        7.77263       -4.48779
C         15.55358        8.89626       -5.49305
C         15.59220       10.22840       -5.05171
C         15.67292       11.27084       -5.97689
C         15.71010       10.99389       -7.34680
C         15.67368        9.66954       -7.79126
C         15.59334        8.62380       -6.86910
H          0.20132        0.16560        0.67107
H          0.30485        1.26761       -0.71472
H          0.38170        1.90972        0.93686
H          2.49494        0.04092       -0.32319
H          2.57304        0.70027        1.30634
H          2.65867        3.03777        0.33720
H          2.61623        2.35317       -1.28522
H          4.76699        1.10120       -0.78695
H          4.81657        1.85187        0.80539
H          4.91643        4.13416       -0.30054
H          4.89452        3.35143       -1.87880
H          7.03234        2.10864       -1.23565
H          7.07689        3.03114        0.26447
H          7.18832        5.17732       -1.08829
H          7.15745        4.22252       -2.56967
H          9.29765        3.05540       -1.79576
H          9.34856        4.15019       -0.41524
H          9.40979        6.12408       -2.03598
H          9.43611        4.97819       -3.38331
H         11.59996        4.00782       -2.49217
H         11.59024        5.25293       -1.20533
H         13.71906        5.11681       -3.37496
H         13.58763        6.38787       -2.09851
H         13.35366        6.69166       -5.56895
H         11.46280        8.31769       -4.52138
H         12.73730        9.41567       -5.13054
H         11.70667       11.65110       -0.94628
H         12.89438       10.35013       -0.69722
H          9.83062       10.11285       -0.38207
H         11.01734       10.17130        0.91094
H         12.00329        7.99945        0.14796
H         10.89474        7.94932       -1.21771
H         10.01928        7.86333        1.74067
H         10.06699        6.47956        0.63698
H          8.92163        7.80134        0.34907
H         10.77288       10.62369       -4.24723
H         10.33652       11.64327       -2.86790
H          9.70958        9.97725       -2.96288
H         15.93341        6.85724       -4.81463
H         15.76929        8.05550       -3.48988
H         15.56859       10.44334       -3.98190
H         15.71738       12.30217       -5.62603
H         15.77876       11.80936       -8.06707
H         15.71724        9.44853       -8.85797
H         15.57929        7.59061       -7.22394
