49

C          1.02325       -0.85155       -1.98861
O          2.33256       -1.30317       -1.65162
C          3.13582       -0.28151       -1.08136
C          4.51931       -0.81890       -0.70349
C          5.29302       -1.30590       -1.95127
C          4.92112       -2.71720       -2.38063
N          5.20658       -3.66356       -1.23477
C          4.40413       -3.34077        0.04614
C          4.68518       -1.86576        0.44468
C          4.11450       -1.52198        1.87528
C          4.80267       -2.49989        2.88567
C          4.84995       -2.16611        4.39418
C          3.48152       -2.11999        5.09004
C          5.75771       -3.19572        5.08675
C          4.51030       -0.06703        2.19813
O          5.92084        0.09578        2.01419
C          2.57121       -1.62098        1.95985
C          3.05265       -3.83064       -0.17076
C          1.98959       -4.37799       -0.34655
H          0.48261       -1.71273       -2.39782
H          1.05716       -0.05015       -2.74700
H          0.48904       -0.47641       -1.09807
H          2.63002        0.16441       -0.20630
H          3.28142        0.54050       -1.81198
H          5.06836        0.06323       -0.33987
H          6.37872       -1.25612       -1.75976
H          5.10197       -0.63489       -2.80062
H          5.50950       -3.06932       -3.23783
H          3.84952       -2.80873       -2.59726
H          6.20968       -3.62469       -1.00351
H          4.98436       -4.63007       -1.50830
H          4.86795       -3.97730        0.81638
H          5.77867       -1.86260        0.61295
H          5.85299       -2.62488        2.57227
H          4.32228       -3.49039        2.79148
H          5.33451       -1.18206        4.51144
H          2.92237       -3.05543        4.93305
H          2.84984       -1.29221        4.74416
H          3.61172       -1.99396        6.17341
H          5.33679       -4.21076        5.01147
H          5.86814       -2.96518        6.15479
H          6.76326       -3.21347        4.64278
H          4.21911        0.14883        3.23798
H          3.94777        0.63391        1.55532
H          6.19324        0.93691        2.41010
H          2.25119       -2.62837        2.24896
H          2.07605       -1.38367        1.01331
H          2.17969       -0.93085        2.71802
H          1.02521       -4.82050       -0.49650
