41

O          7.29885       -2.39103       -4.39565
C          6.79265       -1.09054       -4.77197
C          7.15484       -0.07777       -3.70230
O          6.57386       -0.48502       -2.45624
C          7.45021       -0.89796       -1.42103
C          6.91164       -2.19841       -0.84557
N          7.11469       -3.37337       -1.78456
C          8.42378       -4.07081       -1.50827
C          8.61201       -5.35087       -2.33346
C          8.96194       -5.19952       -3.81958
C         10.21198       -4.35876       -4.10105
C         10.54879       -4.28629       -5.60745
C          9.47737       -3.71758       -6.41789
C          8.58248       -3.26073       -7.09831
O          7.46091       -6.20694       -2.14649
C          6.25227       -5.58702       -2.52676
C          5.96497       -4.35701       -1.67884
I          4.65589       -7.00823       -2.23719
H          7.81466       -2.75854       -5.14882
H          5.69816       -1.15421       -4.87515
H          7.21841       -0.78690       -5.74050
H          6.74716        0.91078       -3.96608
H          8.24936        0.01380       -3.60787
H          7.46875       -0.14882       -0.60958
H          8.48585       -1.00962       -1.78734
H          5.83045       -2.08958       -0.69094
H          7.37853       -2.45292        0.11531
H          7.13550       -2.99515       -2.77640
H          8.41312       -4.33515       -0.44242
H          9.23162       -3.34956       -1.68347
H          9.42766       -5.90058       -1.83820
H          8.11000       -4.78696       -4.37866
H          9.10503       -6.22033       -4.20565
H         11.08364       -4.77956       -3.57661
H         10.08259       -3.33001       -3.72887
H         10.77262       -5.29610       -5.98984
H         11.46300       -3.69028       -5.75307
H          7.83470       -2.89385       -7.77238
H          6.22015       -5.35424       -3.60215
H          5.86503       -4.63373       -0.62009
H          5.05922       -3.83712       -2.01325
