56

C          1.71699        1.11424        0.28652
C          3.16900        1.39708       -0.10070
C          3.38438        1.28574       -1.63220
C          4.79361        1.62817       -2.00405
O          5.22022        2.71108       -2.35586
O          5.63596        0.53463       -1.86239
C          7.01982        0.80784       -2.04519
C          7.34302        0.83777       -3.55923
N          8.74289        1.22794       -3.76697
N          9.74672        0.41885       -3.50434
N         10.87356        1.08752       -3.66328
C         10.55287        2.33528       -4.02296
N          9.20873        2.46012       -4.10411
C          8.34819        3.60351       -4.48105
C          7.88720        4.40287       -3.25435
C          7.26803        5.71350       -3.73468
C          6.63952        6.63541       -2.62282
C          7.50366        7.04100       -1.36266
C          8.88202        7.79695       -1.50504
C          8.98789        9.20838       -2.20907
C          8.13347       10.40026       -1.63655
F          8.30761       10.51901       -0.31013
F          8.53552       11.53082       -2.23670
F          6.82689       10.21603       -1.89565
F         10.29452        9.55965       -2.10193
F          8.68424        9.06722       -3.52360
F          9.35939        7.92446       -0.24504
F          9.72733        6.96530       -2.19249
F          6.70069        7.77285       -0.56019
F          7.80590        5.87269       -0.70767
F          6.18795        7.75666       -3.22714
F          5.57444        5.95505       -2.11421
F          8.18755        6.43692       -4.44539
F          6.24028        5.42768       -4.60087
C         11.59403        3.41068       -4.31423
C         12.00967        3.47307       -5.81455
F         12.51369        2.27385       -6.18295
F         10.87849        3.71959       -6.55016
F         11.09018        4.63253       -3.95704
F         12.68547        3.15157       -3.56570
H          1.58646        1.18772        1.37381
H          1.40820        0.10468       -0.01948
H          1.02967        1.83309       -0.18126
H          3.84110        0.68929        0.40808
H          3.45830        2.40733        0.22733
H          2.72371        1.98724       -2.15825
H          3.15620        0.26255       -1.96307
H          7.56419       -0.01219       -1.56150
H          7.29188        1.76692       -1.58039
H          6.70058        1.55448       -4.08084
H          7.23254       -0.15500       -4.01190
H          7.50752        3.20257       -5.05974
H          8.95427        4.21542       -5.15720
H          8.74396        4.62963       -2.60907
H          7.12589        3.85490       -2.68211
H         12.74674        4.27451       -5.98287
