104

C          0.50750       -1.16625        1.97848
C          1.75327       -0.80644        1.16535
C          2.78770       -1.93604        1.10636
C          4.06450       -1.55526        0.34916
C          5.08379       -2.69549        0.25291
C          6.42425       -2.25883       -0.34689
C          7.40998       -3.43644       -0.50958
C          8.77984       -3.01417       -0.99338
C          9.76696       -2.90446       -0.02526
C         11.06564       -2.43391       -0.28307
C         11.44378       -1.99336       -1.53960
C         10.46677       -2.07139       -2.57756
C          9.13974       -2.62526       -2.33540
C          8.28228       -2.77246       -3.46868
C          6.98114       -3.51579       -3.56899
C          7.21364       -5.04464       -3.68948
C          5.95783       -5.86267       -4.02827
C          4.82568       -5.88110       -2.98367
C          3.81971       -4.72235       -3.05642
C          2.59897       -4.93101       -2.15488
C          1.58917       -3.78153       -2.21604
C          0.34481       -4.01357       -1.35393
C         -0.63685       -2.83924       -1.37010
C         -1.85525       -3.04280       -0.46452
C         -2.75955       -1.81058       -0.37481
C         -3.91452       -1.96321        0.62050
C         -4.82589       -0.73550        0.68363
N          8.70359       -2.29326       -4.65914
C          9.90863       -1.69734       -4.90338
C         10.79808       -1.60052       -3.87837
C         12.83193       -1.46547       -1.82809
C         13.86169       -1.59770       -0.70221
C         15.22109       -1.07079       -1.17674
S         16.60896       -1.53370       -0.11232
C         17.00205       -3.18320       -0.72096
S         16.13121       -3.92665       -1.93983
N         18.06622       -3.74324       -0.09840
C         18.85371       -3.04332        0.92964
C         18.44514       -3.36555        2.37004
C         18.49962       -5.10774       -0.45707
C         17.71965       -6.22044        0.24721
H         -0.22558       -0.34806        1.97418
H          0.76407       -1.37662        3.02713
H          0.00880       -2.05897        1.57658
H          2.22476        0.09366        1.59552
H          1.46044       -0.53032        0.13775
H          2.33199       -2.82638        0.64129
H          3.05556       -2.23767        2.13400
H          4.53297       -0.68843        0.84714
H          3.80326       -1.21273       -0.66786
H          4.65907       -3.51930       -0.34548
H          5.26127       -3.11591        1.25764
H          6.88978       -1.49545        0.29763
H          6.25591       -1.75985       -1.31740
H          6.96378       -4.21966       -1.13527
H          7.54570       -3.90412        0.47659
H          9.51890       -3.20048        0.99534
H         11.78233       -2.41035        0.53749
H          6.44684       -3.16419       -4.46714
H          6.32751       -3.28074       -2.72650
H          7.66161       -5.41679       -2.75464
H          7.96850       -5.21854       -4.47359
H          6.30270       -6.89499       -4.19285
H          5.55288       -5.52760       -4.99908
H          5.25429       -5.94646       -1.96749
H          4.26310       -6.81848       -3.11869
H          3.48133       -4.60827       -4.10116
H          4.29438       -3.76254       -2.78939
H          2.93055       -5.07151       -1.11056
H          2.10044       -5.87396       -2.43809
H          1.28216       -3.62006       -3.26409
H          2.08190       -2.84441       -1.90045
H          0.65394       -4.21125       -0.31206
H         -0.16768       -4.93124       -1.69114
H         -0.97323       -2.65304       -2.40492
H         -0.10619       -1.92243       -1.05937
H         -1.51138       -3.31352        0.54971
H         -2.44107       -3.90807       -0.82006
H         -3.16511       -1.57879       -1.37558
H         -2.14905       -0.93562       -0.08719
H         -3.50036       -2.16790        1.62278
H         -4.50979       -2.85311        0.35348
H         -4.26551        0.16376        0.98101
H         -5.63955       -0.87373        1.40869
H         -5.28594       -0.52879       -0.29441
H          8.06241       -2.41118       -5.44285
H         10.08280       -1.34758       -5.91778
H         11.76869       -1.15160       -4.07009
H         12.75548       -0.40531       -2.13202
H         13.24057       -2.00234       -2.70160
H         13.97277       -2.65877       -0.43452
H         13.54865       -1.04988        0.19988
H         15.24883        0.02904       -1.19862
H         15.45882       -1.45521       -2.17996
H         18.78045       -1.96292        0.74220
H         19.90650       -3.31377        0.76152
H         17.38291       -3.14498        2.53818
H         19.03523       -2.75317        3.06548
H         18.62488       -4.41986        2.61593
H         19.56806       -5.16779       -0.20639
H         18.39462       -5.20866       -1.54571
H         17.82856       -6.17220        1.33781
H         18.09850       -7.19597       -0.08784
H         16.65303       -6.16738       -0.00462
