46

C          5.68323       -2.15868        2.65088
C          5.19924       -1.19635        1.56459
C          5.35715        0.27771        1.95380
C          4.81439        1.23891        0.88974
C          5.04362        2.70873        1.19362
O          6.46981        2.98027        1.09085
C          6.81560        4.28667        1.39928
N          8.30764        4.37140        1.18674
C          8.63716        4.22133       -0.28782
C         10.06015        3.75315       -0.60361
C         10.38169        2.27045       -0.33730
S         10.91878        1.98702        1.35873
O         12.18677        2.63758        1.58783
O          9.78585        2.27195        2.23268
O         11.10224        0.39456        1.39717
C          8.89311        5.63119        1.78794
C          9.09078        5.53492        3.29978
C          9.66688        6.81999        3.88003
Br         8.43207        8.33767        3.67215
H          5.57014       -3.20477        2.33743
H          5.11299       -2.02732        3.58213
H          6.74512       -1.99452        2.88702
H          4.14053       -1.40138        1.33507
H          5.75286       -1.38362        0.62894
H          6.42255        0.49129        2.14113
H          4.83253        0.46239        2.90717
H          3.72746        1.09596        0.77649
H          5.25457        1.01128       -0.09561
H          4.70625        2.96408        2.21458
H          4.51067        3.35636        0.47535
H          6.61165        4.55022        2.45216
H          6.34413        5.03873        0.73602
H          8.73082        3.54368        1.68113
H          8.45428        5.20422       -0.74256
H          7.90407        3.50887       -0.68580
H         10.82287        4.39408       -0.13584
H         10.18121        3.91151       -1.68552
H         11.22118        1.93950       -0.96276
H          9.52487        1.60433       -0.51135
H         12.05836        0.18728        1.43401
H          8.22470        6.46248        1.52127
H          9.85728        5.80104        1.29103
H          9.79276        4.71628        3.53020
H          8.14372        5.30587        3.80968
H         10.59932        7.12473        3.39155
H          9.83621        6.72341        4.95587
