66

C          0.37591       -1.08803       -0.42367
C          1.85812       -0.75895       -0.22782
C          2.72279       -1.99224        0.05740
C          4.20353       -1.66719        0.28018
C          5.06586       -2.90173        0.56467
C          6.54229       -2.57533        0.81519
C          7.39824       -3.81344        1.10362
C          8.86512       -3.48448        1.40616
C          9.70905       -4.73483        1.69281
C         11.14154       -4.39262        2.05639
O         11.86245       -5.62611        2.32220
C         13.23269       -5.45520        2.64978
C         13.80879       -6.87119        2.82566
N         13.11137       -7.75889        1.78435
C         14.06918       -8.02200        0.63974
C         15.30758       -7.15649        0.95356
C         15.30018       -7.00836        2.50985
C         15.96909       -8.18532        3.26820
C         15.73804       -8.11131        4.70295
C         15.50524       -8.02991        5.88727
C         16.55895       -7.65894        0.32971
N         17.44329       -6.95834       -0.30972
N         18.46504       -7.82636       -0.67372
C         18.11389       -9.01168       -0.24051
O         16.89676       -8.99374        0.41840
S         18.99876      -10.47887       -0.47884
C         18.14928      -11.64744        0.65480
C         18.90320      -12.97542        0.59779
H         -0.21201       -0.18428       -0.63503
H         -0.05118       -1.55871        0.47449
H          0.22753       -1.78397       -1.26274
H          1.96897       -0.03959        0.60117
H          2.24421       -0.24592       -1.12494
H          2.62624       -2.70553       -0.78026
H          2.32731       -2.51644        0.94549
H          4.29729       -0.95619        1.11979
H          4.59996       -1.14090       -0.60597
H          4.98532       -3.60649       -0.28162
H          4.65858       -3.43563        1.44139
H          6.62024       -1.87313        1.66360
H          6.95395       -2.04053       -0.05852
H          7.34749       -4.50282        0.24278
H          6.96744       -4.36320        1.95869
H          8.91238       -2.80329        2.27294
H          9.30089       -2.93013        0.55741
H          9.70709       -5.39382        0.80817
H          9.25898       -5.30724        2.51974
H         11.18541       -3.76410        2.96237
H         11.65237       -3.85385        1.23774
H         13.36555       -4.90222        3.59500
H         13.75735       -4.89537        1.85157
H         13.55044       -7.26325        3.81777
H         12.26351       -7.20083        1.52127
H         12.78971       -8.63325        2.20914
H         13.58581       -7.75981       -0.30699
H         14.30603       -9.09176        0.63290
H         15.17228       -6.15549        0.51868
H         15.82075       -6.08238        2.79139
H         17.05024       -8.16793        3.06178
H         15.61104       -9.15926        2.89042
H         15.33456       -7.97497        6.94315
H         17.10848      -11.76486        0.32631
H         18.16371      -11.22156        1.66680
H         18.89959      -13.39975       -0.41517
H         18.41890      -13.69933        1.26638
H         19.94635      -12.86189        0.92131
