44

N          3.45062       -0.89430       -3.01178
C          3.04196        0.12737       -2.04723
C          3.26094       -0.35894       -0.58458
C          4.71632       -0.64579       -0.35889
C          5.56296        0.38378        0.02975
C          6.93961        0.15264        0.11799
N          7.49053       -1.00632       -0.20309
N          6.66634       -1.99141       -0.56772
C          5.30687       -1.91338       -0.63366
C          4.51875       -3.16442       -0.88795
C          4.44183       -4.11437        0.34703
C          3.63946       -3.47711        1.49843
C          3.67962       -4.27143        2.80673
C          3.87206       -5.46350       -0.10844
C          7.43174       -3.18343       -1.02083
C          8.02396       -2.95733       -2.43150
C          7.04311       -2.48181       -3.44891
C          6.33457       -3.23365       -4.29914
F          6.41827       -4.56031       -4.33269
F          5.47192       -2.76467       -5.18250
F          6.84921       -1.13311       -3.48677
H          3.86187       -0.48111       -3.84611
H          2.66032       -1.46068       -3.31760
H          1.98666        0.43272       -2.14233
H          3.64684        1.03148       -2.20856
H          2.63289       -1.23588       -0.38659
H          2.93496        0.43211        0.10538
H          5.16302        1.37284        0.25786
H          7.64495        0.92067        0.43671
H          4.93317       -3.70073       -1.75028
H          3.50723       -2.88094       -1.19265
H          5.46832       -4.28583        0.72050
H          2.59253       -3.34704        1.17327
H          4.02699       -2.46293        1.69546
H          3.19963       -5.25393        2.71053
H          3.15401       -3.73092        3.60450
H          4.71394       -4.43445        3.14368
H          2.84228       -5.35365       -0.48068
H          3.85276       -6.18638        0.71613
H          4.47478       -5.90309       -0.91592
H          6.77557       -4.05468       -1.00130
H          8.23519       -3.32514       -0.28983
H          8.46917       -3.90937       -2.75175
H          8.83775       -2.22008       -2.37327
