80

C          2.84229      -15.32249       -5.45015
C          4.22423      -14.68895       -5.62701
C          4.27829      -13.21404       -5.21126
C          5.66216      -12.58371       -5.39391
C          5.74879      -11.11616       -4.95946
C          7.14709      -10.52429       -5.15991
C          7.30372       -9.07396       -4.68681
C          8.72669       -8.55329       -4.92076
C          8.97990       -7.15566       -4.38069
O         10.35018       -6.82596       -4.66965
C         10.80588       -5.61960       -4.09239
C         12.31447       -5.59735       -4.33311
O         12.84555       -4.35700       -3.88354
C         14.27037       -4.38907       -3.83677
C         14.88204       -4.57809       -5.23412
N         14.21021       -5.77507       -5.87988
C         12.68985       -5.82097       -5.80688
C         12.03414       -4.83791       -6.79297
C         12.78408       -4.58496       -8.11119
O         13.56318       -5.74113       -8.46466
C         14.19968       -5.63514       -9.75797
C         14.93621       -6.93540      -10.01542
O         14.06901       -8.04949      -10.15847
C         16.43466       -4.75689       -5.29959
C         16.91639       -4.75151       -6.80358
C         16.61378       -3.46490       -7.58970
C         18.40705       -5.09786       -6.96713
C         17.08173       -3.62506       -4.46568
O         16.46638       -2.37287       -4.77350
C         16.85573       -6.08886       -4.63330
H          2.84204      -16.37841       -5.75374
H          2.08368      -14.80355       -6.05479
H          2.51369      -15.27926       -4.40106
H          4.53953      -14.77983       -6.68046
H          4.96751      -15.25625       -5.04115
H          3.96929      -13.12198       -4.15499
H          3.53400      -12.64282       -5.79373
H          5.96165      -12.66680       -6.45379
H          6.40528      -13.17131       -4.82599
H          5.46152      -11.03104       -3.89684
H          5.00988      -10.51945       -5.52219
H          7.41670      -10.58716       -6.22902
H          7.88310      -11.15287       -4.62818
H          7.05436       -9.01028       -3.61361
H          6.57613       -8.42991       -5.20951
H          8.95020       -8.55920       -6.00056
H          9.45031       -9.23777       -4.44834
H          8.81665       -7.11559       -3.28718
H          8.30989       -6.40961       -4.84920
H         10.61790       -5.58445       -3.00385
H         10.32306       -4.72969       -4.54175
H         12.75980       -6.42633       -3.74255
H         14.59582       -5.18271       -3.13805
H         14.58909       -3.41713       -3.44550
H         14.59267       -3.70884       -5.83588
H         14.57895       -6.62805       -5.43848
H         14.42219       -5.83193       -6.90630
H         12.42875       -6.84898       -6.08944
H         11.87692       -3.86537       -6.30537
H         11.04162       -5.25651       -7.00535
H         13.45707       -3.71238       -8.02464
H         12.06551       -4.36101       -8.91598
H         14.89886       -4.78019       -9.76428
H         13.42360       -5.47181      -10.52451
H         15.68295       -7.10339       -9.21221
H         15.49012       -6.84925      -10.96116
H         13.50108       -8.09783       -9.37320
H         16.37056       -5.57721       -7.30149
H         17.20874       -2.61964       -7.22359
H         15.56161       -3.15409       -7.54562
H         16.86517       -3.61700       -8.64815
H         19.05752       -4.34308       -6.50289
H         18.66033       -5.11918       -8.03520
H         18.67178       -6.07835       -6.55404
H         18.16267       -3.60365       -4.68218
H         16.97346       -3.85958       -3.39070
H         16.92198       -1.67255       -4.28218
H         16.66966       -6.96213       -5.27829
H         16.35389       -6.25264       -3.67020
H         17.93283       -6.09518       -4.42670
