105

C          0.64066       -2.10358       -2.93465
C          2.14348       -1.93669       -2.69547
C          2.72412       -2.98332       -1.73826
C          4.23025       -2.83783       -1.50011
C          4.80484       -3.89521       -0.55201
C          6.31449       -3.76714       -0.32578
C          6.88751       -4.84036        0.60551
C          8.40119       -4.73026        0.81545
C          8.97217       -5.81864        1.73042
C         10.49070       -5.73278        1.91708
C         11.05471       -6.83019        2.82577
C         12.57899       -6.77822        2.97845
C         13.13042       -7.87972        3.89037
C         14.66015       -7.86850        3.99692
C         15.18858       -8.95813        4.94535
C         16.71801       -8.97229        4.96331
S         17.37700      -10.09129        6.25403
C         17.04480      -11.74811        5.56433
C         17.33587      -12.83722        6.59951
C         17.02043      -14.22054        6.03034
F         15.71700      -14.31559        5.66368
F         17.77382      -14.47805        4.92889
F         17.27183      -15.17691        6.94309
C         19.19392       -9.93349        6.08807
C         19.70480       -8.60974        6.65728
C         21.24097       -8.55463        6.61304
C         21.79255       -7.21948        7.12654
C         23.32114       -7.13539        7.06015
C         23.87101       -5.77810        7.51157
C         25.39615       -5.67485        7.40972
C         25.94179       -4.29380        7.78678
C         27.46389       -4.18289        7.65448
C         28.00858       -2.78838        7.98118
C         29.52706       -2.68084        7.81714
C         30.06028       -1.27627        8.13186
N         31.49908       -1.15284        7.95203
C         32.45293       -1.45391        8.90050
C         33.70040       -1.32148        8.31724
C         33.49514       -0.93364        6.96380
C         32.12919       -0.84219        6.76623
H          0.25219       -1.33653       -3.61880
H          0.07552       -2.02577       -1.99371
H          0.41326       -3.08631       -3.37427
H          2.34426       -0.92816       -2.29561
H          2.67861       -1.99004       -3.65887
H          2.51424       -3.99291       -2.13430
H          2.19381       -2.92492       -0.77108
H          4.44180       -1.83146       -1.09744
H          4.75910       -2.89123       -2.46825
H          4.58158       -4.90033       -0.95161
H          4.28333       -3.83622        0.41969
H          6.53978       -2.76727        0.08534
H          6.83352       -3.81576       -1.29941
H          6.64933       -5.83890        0.19820
H          6.37765       -4.78570        1.58358
H          8.64205       -3.73689        1.23322
H          8.90822       -4.77565       -0.16457
H          8.71294       -6.81058        1.32006
H          8.47857       -5.76294        2.71665
H         10.75496       -4.74340        2.32978
H         10.98197       -5.78904        0.92972
H         10.76417       -7.81785        2.42667
H         10.58450       -6.75722        3.82210
H         12.87663       -5.79173        3.37427
H         13.04749       -6.85977        1.98206
H         12.80036       -8.86400        3.51522
H         12.69256       -7.77488        4.89810
H         15.00252       -6.88148        4.35089
H         15.09897       -8.00788        2.99420
H         14.80034       -9.93642        4.62042
H         14.80430       -8.78138        5.96277
H         17.12146       -7.98931        5.24893
H         17.16199       -9.26984        4.00158
H         17.63825      -11.86350        4.64662
H         15.97844      -11.73520        5.29997
H         16.72388      -12.70382        7.50205
H         18.39263      -12.85382        6.89934
H         19.44333      -10.07125        5.02526
H         19.59101      -10.78823        6.65641
H         19.35644       -8.49064        7.69569
H         19.29735       -7.76350        6.08188
H         21.58419       -8.71896        5.57741
H         21.65414       -9.38401        7.21162
H         21.45771       -7.05911        8.16576
H         21.35702       -6.39574        6.53454
H         23.65146       -7.33422        6.02558
H         23.76114       -7.93692        7.67844
H         23.55666       -5.58094        8.55132
H         23.41184       -4.98099        6.90065
H         25.70756       -5.91730        6.37838
H         25.86020       -6.44273        8.05297
H         25.64372       -4.05046        8.82171
H         25.46477       -3.52956        7.14803
H         27.75988       -4.45503        6.62624
H         27.94498       -4.92692        8.31289
H         27.72714       -2.51865        9.01446
H         27.51492       -2.04486        7.33047
H         29.81332       -2.94407        6.78583
H         30.03175       -3.40854        8.47315
H         29.82149       -1.00055        9.17063
H         29.57265       -0.53020        7.48555
H         32.16276       -1.72781        9.91000
H         34.65264       -1.47160        8.81571
H         34.25895       -0.72682        6.22102
H         31.55211       -0.57316        5.88709
