138

C          0.50518       -0.27401        0.41291
C          2.03404       -0.27752        0.32998
C          2.58563        0.66526       -0.74535
C          4.11482        0.66808       -0.84145
C          4.65958        1.60907       -1.92125
C          6.18849        1.61571       -2.02034
C          6.73119        2.55556       -3.10208
C          8.26030        2.56234       -3.19946
C          8.80593        3.50899       -4.27377
C         10.33539        3.51256       -4.36731
C         10.88645        4.46922       -5.43013
C         12.41562        4.45664       -5.52650
C         12.97710        5.42998       -6.56925
C         14.50574        5.39000       -6.66667
C         15.08269        6.39172       -7.67182
C         16.62260        6.31453       -7.75920
C         17.21047        7.34004       -8.68804
C         17.30857        8.70283       -8.27104
C         17.83451        9.68863       -9.07902
C         18.30239        9.36055      -10.37384
C         18.19989        7.99922      -10.81152
C         17.64909        7.00846       -9.95771
C         18.69662        7.68987      -12.08333
N         19.25348        8.60211      -12.89786
C         19.35107        9.93946      -12.51241
C         18.88199       10.29133      -11.26462
C         19.90409       10.98696      -13.44131
C         21.31573       10.73403      -13.98504
O         22.21320       10.22280      -13.34677
O         21.39273       11.16601      -15.25326
C         22.67694       10.98962      -15.94305
C         22.56786       11.67699      -17.29101
C         23.76283       11.36547      -18.20172
C         23.73677       12.16970      -19.50588
C         24.84013       11.77749      -20.49465
C         24.87087       12.66761      -21.73917
C         19.83320        8.10271      -14.18181
C         19.08895        8.49538      -15.46030
C         19.94788        8.12096      -16.68022
C         19.59466        8.89743      -17.95256
C         20.61221        8.66386      -19.07460
C         20.44776        9.59904      -20.27613
C         21.53153        9.40206      -21.34067
C         21.46963       10.41559      -22.48709
C         22.58164       10.22618      -23.52340
C         22.60735       11.30348      -24.61188
C         23.78858       11.16228      -25.57708
C         23.87980       12.28685      -26.61333
C         25.05889       12.13419      -27.58011
C         25.18792       13.28246      -28.58646
C         26.36286       13.11823      -29.55769
C         26.49614       14.27214      -30.55521
H          0.14069       -0.95838        1.19152
H          0.05288       -0.58520       -0.54073
H          0.12026        0.72994        0.64698
H          2.39009       -1.30261        0.13043
H          2.45745        0.00225        1.30965
H          2.23069        1.69193       -0.54494
H          2.15908        0.38697       -1.72554
H          4.46986       -0.35880       -1.03954
H          4.54162        0.94988        0.13743
H          4.30289        2.63543       -1.72336
H          4.23217        1.32638       -2.89960
H          6.54562        0.58921       -2.21668
H          6.61605        1.90028       -1.04263
H          6.37382        3.58198       -2.90576
H          6.30443        2.27099       -4.08017
H          8.61726        1.53696       -3.40168
H          8.68635        2.84052       -2.21929
H          8.45041        4.53466       -4.07046
H          8.38089        3.23238       -5.25484
H         10.68975        2.48839       -4.57976
H         10.75990        3.77898       -3.38328
H         10.54225        5.49536       -5.21074
H         10.45620        4.21074       -6.41376
H         12.75737        3.43333       -5.76183
H         12.84535        4.69725       -4.53821
H         12.65210        6.45607       -6.32289
H         12.54013        5.20275       -7.55738
H         14.82850        4.37049       -6.94050
H         14.94070        5.58692       -5.67126
H         14.78030        7.41466       -7.39006
H         14.65726        6.21334       -8.67364
H         16.92121        5.30688       -8.08466
H         17.04577        6.45915       -6.75160
H         16.96250        8.96406       -7.26894
H         17.90357       10.71817       -8.72565
H         17.58986        5.97526      -10.30601
H         18.67153        6.66954      -12.46418
H         18.97269       11.33449      -10.96142
H         19.95585       11.92719      -12.87376
H         19.22044       11.17596      -14.27994
H         22.85492        9.90740      -16.04207
H         23.47353       11.40808      -15.31261
H         22.48310       12.76427      -17.13681
H         21.63654       11.35622      -17.78308
H         23.77294       10.28622      -18.43330
H         24.70646       11.57031      -17.66769
H         23.82222       13.24433      -19.26886
H         22.75422       12.04672      -19.99324
H         24.70007       10.72469      -20.79253
H         25.81872       11.81889      -19.98741
H         23.89778       12.67811      -22.24890
H         25.61934       12.32179      -22.46476
H         25.11629       13.70736      -21.47833
H         19.87510        7.01073      -14.08576
H         20.87319        8.44850      -14.20905
H         18.90219        9.57714      -15.48505
H         18.10406        8.00532      -15.49376
H         19.89346        7.03566      -16.86470
H         21.00459        8.33095      -16.44070
H         19.56669        9.97398      -17.70900
H         18.58027        8.63452      -18.29522
H         20.56180        7.61386      -19.40985
H         21.62889        8.79587      -18.66223
H         20.47146       10.64600      -19.92394
H         19.45095        9.45763      -20.72784
H         21.46402        8.37865      -21.74857
H         22.52324        9.46648      -20.85874
H         21.53252       11.43672      -22.07022
H         20.48563       10.35554      -22.98345
H         22.48070        9.23194      -23.99239
H         23.55737       10.21350      -23.00737
H         22.64755       12.29990      -24.13677
H         21.66021       11.28146      -25.17862
H         23.72470       10.18893      -26.09472
H         24.72667       11.13141      -24.99419
H         23.96115       13.25569      -26.08924
H         22.93839       12.33444      -27.18847
H         24.96066       11.17959      -28.12646
H         25.99545       12.05296      -27.00040
H         25.29801       14.23596      -28.03952
H         24.24959       13.37326      -29.16197
H         26.24765       12.16805      -30.10659
H         27.29820       13.02038      -28.98046
H         25.59166       14.37254      -31.17376
H         27.34689       14.12182      -31.23394
H         26.64944       15.23161      -30.03857
