39

C          0.81466        5.54542       -4.41581
O          2.23525        5.59507       -4.36463
C          2.81529        4.32793       -4.12715
C          4.32304        4.53045       -4.07798
O          4.92266        3.24456       -3.89700
C          6.33245        3.28725       -3.86779
C          6.79262        1.84009       -3.68283
C          8.30855        1.57513       -3.82952
C          9.14004        2.24509       -2.69719
C          8.86544        1.65480       -1.39556
C          8.62719        1.09778       -0.34735
C          8.89788        1.97177       -5.19664
C          8.26998        1.16145       -6.32106
Br         9.32277        1.34502       -7.97961
N          8.20150       -0.24626       -5.96579
C          8.40696       -0.72612       -4.72414
N          8.44670       -2.05870       -4.53331
N          8.53958        0.11529       -3.70199
H          0.46685        6.56782       -4.60174
H          0.38912        5.18550       -3.46147
H          0.46286        4.88810       -5.23174
H          2.56027        3.61119       -4.93346
H          2.46043        3.89550       -3.17065
H          4.59265        5.20620       -3.24590
H          4.67164        4.99096       -5.02136
H          6.68995        3.93328       -3.04105
H          6.72139        3.72278       -4.81224
H          6.24237        1.22614       -4.41273
H          6.47564        1.49069       -2.68924
H          8.91717        3.32256       -2.68410
H         10.21336        2.14702       -2.92671
H          8.42291        0.65709        0.60772
H          9.98214        1.78934       -5.18252
H          8.74576        3.03801       -5.39845
H          7.27516        1.52320       -6.60624
H          7.97411       -0.90174       -6.70765
H          8.57442       -2.69471       -5.31072
H          8.52479       -2.44758       -3.60172
H          8.68412       -0.23872       -2.75473
