33

C          3.52211        2.06253       -0.27812
N          2.69837        1.11422        0.48496
C          1.74114        0.42553       -0.15933
N          1.46679        0.63334       -1.44995
N          0.95451       -0.47261        0.50807
C         -0.01775       -1.18447       -0.10180
C         -0.89184       -1.80433       -0.66065
C          3.23630        0.64322        1.75823
C          4.13555       -0.59923        1.56056
O          4.21492       -1.18027        0.49733
O          4.74920       -0.89416        2.70244
C          5.66972       -2.05528        2.69196
C          7.07345       -1.64484        2.28255
C          7.75256       -0.64972        3.23022
C          9.16493       -0.27932        2.77399
H          2.88137        2.73976       -0.85743
H          4.23070        1.53957       -0.93935
H          4.08861        2.67342        0.43148
H          2.11501        1.11905       -2.05549
H          0.71284        0.09720       -1.87452
H          1.09187       -0.60198        1.50652
H         -1.66438       -2.37191       -1.13922
H          2.44110        0.42567        2.48781
H          3.81792        1.45650        2.20871
H          5.24837       -2.80956        2.01614
H          5.63065       -2.41314        3.72823
H          7.05253       -1.25073        1.25349
H          7.66585       -2.57444        2.23444
H          7.78928       -1.08341        4.24312
H          7.13932        0.26223        3.31171
H          9.81239       -1.16646        2.72123
H          9.63287        0.43246        3.46638
H          9.15498        0.18282        1.77582
