101

C          0.77417       -1.12868        1.68951
C          2.30520       -1.12878        1.67589
C          2.91455        0.17496        2.20307
C          4.44669        0.19164        2.20219
C          5.03968        1.49950        2.73618
C          6.57150        1.52764        2.76368
C          7.14007        2.84329        3.30466
C          8.67056        2.89476        3.35775
C          9.20537        4.22533        3.89676
C         10.73380        4.32298        3.94309
C         11.22699        5.67501        4.46853
C         12.74974        5.84405        4.45860
C         13.19768        7.21939        4.96487
C         14.70895        7.45991        4.88912
C         15.11755        8.85045        5.38746
C         16.62095        9.13235        5.29318
C         16.99974       10.53157        5.79140
C         18.50160       10.82640        5.71404
C         18.85450       12.22766        6.22776
C         20.34974       12.53025        6.32023
S         21.27024       12.31079        4.74808
C         20.88523       13.84758        3.66423
C         20.55590       15.12096        4.46291
C         21.65704       15.86686        5.25883
C         22.39525       16.91544        4.41034
C         21.03593       16.54327        6.49135
C         22.09706       13.99816        2.73553
O         22.36431       12.73208        2.14000
C         19.65615       13.37700        2.86379
C         22.98793       12.38833        5.37766
C         23.44203       10.99093        5.84973
C         23.62620        9.99261        4.68380
C         24.78384       10.28292        3.72312
C         24.70236       11.15896        6.71463
H          0.36615       -2.07509        1.30824
H          0.36885       -0.31741        1.06629
H          0.38432       -0.98637        2.70867
H          2.66531       -1.30893        0.64865
H          2.67940       -1.97378        2.27862
H          2.54994        0.35607        3.22999
H          2.54031        1.02073        1.59906
H          4.81454        0.01451        1.17599
H          4.82156       -0.65325        2.80664
H          4.65641        1.68108        3.75602
H          4.67174        2.34187        2.12387
H          6.96037        1.35105        1.74519
H          6.94191        0.68790        3.37784
H          6.73695        3.02249        4.31724
H          6.77162        3.67944        2.68411
H          9.07886        2.71799        2.34691
H          9.04508        2.06598        3.98396
H          8.79977        4.39495        4.90996
H          8.81189        5.04973        3.27583
H         11.14152        4.15285        2.93088
H         11.13823        3.51093        4.57242
H         10.85007        5.82507        5.49564
H         10.77458        6.48101        3.86381
H         13.12637        5.69175        3.43165
H         13.21608        5.05353        5.07229
H         12.85924        7.35109        6.00770
H         12.68027        8.00176        4.38162
H         15.04716        7.33051        3.84590
H         15.23662        6.68827        5.47663
H         14.79070        8.97162        6.43508
H         14.56889        9.61628        4.81125
H         16.95202        9.01286        4.24648
H         17.17418        8.37450        5.87493
H         16.66030       10.65166        6.83478
H         16.44884       11.28859        5.20597
H         18.84258       10.70825        4.67131
H         19.05598       10.07318        6.30059
H         18.46690       12.35049        7.25307
H         18.34170       12.99783        5.63102
H         20.84822       11.79894        6.97516
H         20.56226       13.53530        6.70618
H         19.71305       14.88566        5.12954
H         20.12536       15.82006        3.72488
H         22.40138       15.13693        5.62036
H         21.69458       17.68854        4.06069
H         22.88658       16.49323        3.52463
H         23.17024       17.41813        5.00378
H         20.26770       17.27249        6.19313
H         21.79678       17.08421        7.06934
H         20.55801       15.81769        7.16634
H         22.97524       14.37412        3.28596
H         21.82606       14.75886        1.98116
H         23.05815       12.83218        1.47013
H         18.78100       13.22384        3.50625
H         19.86178       12.45384        2.31105
H         19.39763       14.15981        2.13682
H         23.02401       13.13459        6.18158
H         23.60130       12.73794        4.53846
H         22.65506       10.57673        6.50486
H         22.68579        9.93028        4.11217
H         23.76762        8.99572        5.12868
H         24.69391       11.26947        3.24436
H         24.79738        9.53885        2.91673
H         25.76053       10.23864        4.22244
H         25.51417       11.65667        6.16631
H         25.07187       10.17634        7.03688
H         24.49388       11.75102        7.61623
