58

O          3.00024        0.01814       -1.13322
C          2.53479       -0.13080       -0.00653
N          1.37142        0.41445        0.45103
C          0.42231        1.22460       -0.22527
C          0.59823        1.68754       -1.53828
C         -0.39107        2.48950       -2.11174
C         -1.54401        2.83401       -1.40346
C         -1.71215        2.36739       -0.09655
C         -0.73601        1.56687        0.49124
C          3.24909       -1.03770        1.02451
C          4.74200       -1.11190        0.67263
P          5.51442       -2.66688        1.17886
C          4.95298       -4.00775        0.05573
C          5.42739       -5.35513        0.55514
C          4.77676       -5.98629        1.62763
C          5.23747       -7.21205        2.11126
C          6.35278       -7.82116        1.52959
C          7.00121       -7.20395        0.45702
C          6.54339       -5.97588       -0.02558
C          7.34331       -2.67817        1.09600
C          8.08071       -1.52716        1.79496
C          7.50113       -1.27899        3.18430
O          6.26614       -1.30332        3.31991
N          8.38863       -1.04030        4.17790
C          8.16996       -0.80142        5.56209
C          6.89886       -0.61025        6.12349
C          6.79343       -0.39761        7.49968
C          7.92605       -0.37068        8.31554
C          9.18935       -0.55380        7.74627
C          9.31288       -0.76754        6.37606
H          1.12466        0.20024        1.41325
H          1.49360        1.42247       -2.09314
H         -0.25090        2.84853       -3.13178
H         -2.30756        3.45976       -1.86512
H         -2.60725        2.62562        0.46972
H         -0.87339        1.20243        1.51265
H          2.76387       -2.02640        0.95822
H          3.11022       -0.68376        2.05541
H          5.29770       -0.28566        1.13097
H          4.83844       -1.03202       -0.42529
H          5.05631       -3.09001        2.43932
H          5.32178       -3.78592       -0.95627
H          3.85416       -3.95175        0.02073
H          3.89354       -5.52837        2.07972
H          4.71872       -7.69660        2.93895
H          6.70820       -8.78143        1.90385
H          7.86072       -7.68291       -0.01269
H          7.04569       -5.50677       -0.87436
H          7.58644       -2.69935        0.02287
H          7.64146       -3.65570        1.50540
H          7.96644       -0.59598        1.21730
H          9.15590       -1.75412        1.81703
H          9.36928       -1.07366        3.91174
H          6.01369       -0.63120        5.49487
H          5.80507       -0.24997        7.93580
H          7.82616       -0.20706        9.38830
H         10.08344       -0.53211        8.36912
H         10.30148       -0.91429        5.93375
