38

F          1.80761       -0.89697       -1.04278
C          2.82946       -1.31918       -1.91059
C          4.15802       -0.74143       -1.44198
N          4.53232       -1.22128       -0.09468
C          4.18916       -0.60862        1.04303
N          4.44054       -1.06584        2.29550
N          3.95126       -0.25234        3.28515
C          3.38362        0.71984        2.64042
N          3.50758        0.57086        1.26284
N          3.08771        1.46143        0.27114
C          5.24588       -2.51402       -0.02294
C          6.77260       -2.35613        0.00803
C          7.45245       -3.72864       -0.02610
S          9.24965       -3.49237       -0.10631
C          9.80049       -5.14339       -0.45707
S          8.84865       -6.47881       -0.43199
N         11.17044       -5.16673       -0.73224
C         12.00003       -4.09068       -1.08608
N         13.22796       -4.47501       -1.29383
C         13.23575       -5.84868       -1.06801
C         11.99091       -6.29941       -0.73495
H          2.59620       -0.95383       -2.92162
H          2.82005       -2.41965       -1.91043
H          4.11698        0.35088       -1.43977
H          4.95621       -1.04870       -2.13229
H          4.93322       -1.91162        2.55876
H          2.87836        1.56658        3.09482
H          2.07683        1.37588        0.13675
H          3.33606        2.41159        0.54998
H          4.94327       -3.08776       -0.90988
H          4.87425       -3.09581        0.83530
H          7.07888       -1.79184        0.90361
H          7.08804       -1.75804       -0.86087
H          7.15080       -4.31420       -0.90712
H          7.21392       -4.33022        0.86292
H         11.61416       -3.08273       -1.20818
H         14.14983       -6.42606       -1.16340
H         11.59301       -7.27610       -0.49229
