57

C          2.13391        1.22862        0.13758
C          3.45921        0.60230       -0.30250
C          3.53840       -0.89578        0.02556
C          4.87335       -1.49962       -0.41696
S          4.81915       -3.29882       -0.05328
C          6.34285       -3.84452       -0.62264
N          6.75757       -5.10138       -0.64909
N          8.02735       -5.08203       -1.17047
C          8.29308       -3.83314       -1.42319
O          7.29859       -2.96875       -1.11401
N          9.48499       -3.34564       -1.97802
N          9.58436       -2.01326       -2.08969
C         10.71353       -1.57096       -2.62643
C         11.78387       -2.37733       -3.07496
C         11.64176       -3.77574       -2.91074
C         10.45432       -4.22673       -2.34583
C         12.72210       -4.75337       -3.30076
C         12.40139       -6.23189       -3.08012
C         13.48089       -7.20134       -3.52954
C         14.78374       -6.80561       -3.86314
C         15.74197       -7.74986       -4.24744
C         15.41212       -9.10393       -4.30301
C         14.11501       -9.51073       -3.97186
C         13.16130       -8.56797       -3.59196
C         12.94916       -1.73272       -3.73367
C         12.64841       -1.27401       -5.23519
N         12.18679       -2.33083       -6.12507
N         11.56783       -0.29669       -5.19103
N         13.89553       -0.67651       -5.69200
H          2.10182        2.29721       -0.11133
H          1.98676        1.13532        1.22317
H          1.27877        0.74638       -0.35756
H          4.29803        1.12748        0.18374
H          3.59460        0.74360       -1.38760
H          2.70891       -1.42417       -0.47257
H          3.40302       -1.04672        1.10900
H          5.71872       -1.05875        0.12787
H          5.03405       -1.37398       -1.49642
H         10.76648       -0.48677       -2.70448
H         10.21105       -5.27141       -2.16296
H         13.62925       -4.47660       -2.73649
H         12.97493       -4.58243       -4.35942
H         11.46926       -6.49138       -3.61061
H         12.19999       -6.40765       -2.00792
H         15.07761       -5.75544       -3.82352
H         16.75014       -7.42104       -4.50275
H         16.15898       -9.83950       -4.60227
H         13.84568      -10.56664       -4.01222
H         12.15109       -8.89698       -3.33601
H         13.82134       -2.39800       -3.74494
H         13.23371       -0.82101       -3.18875
H         11.32756       -2.78483       -5.81281
H         12.90141       -3.03211       -6.30756
H         11.94262        0.61333       -4.91754
H         11.16640       -0.20282       -6.12548
H         13.80540       -0.40499       -6.67347
H         14.68795       -1.31814       -5.61999
