65

N          1.75295        2.06569        0.07181
C          3.12389        1.57620        0.22933
C          3.15859        0.04881        0.13289
C          4.57738       -0.52504        0.21519
C          4.57949       -2.05211        0.08501
C          5.96494       -2.76042        0.04337
C          6.83565       -2.43893        1.27172
C          6.21985       -2.98076        2.55687
N          5.89013       -4.40205        2.38472
C          5.65103       -4.96496        1.18629
N          5.36872       -6.28366        1.10759
C          5.16365       -7.00719       -0.15034
C          4.70688       -8.44024        0.12972
C          4.49257       -9.20232       -1.18226
S          3.90530      -10.87407       -0.78943
C          3.70574      -11.56436       -2.40895
S          4.18062      -10.84639       -3.80647
N          3.11173      -12.82948       -2.34793
C          2.40827      -13.40475       -1.27826
N          1.97651      -14.59983       -1.57021
C          2.40372      -14.84652       -2.87148
C          3.08957      -13.77877       -3.37476
N          5.69797       -4.22357        0.07899
C          6.67558       -2.43752       -1.29063
C          8.11533       -2.91664       -1.59340
C          8.29181       -4.45050       -1.77057
C          8.81603       -5.21315       -0.54871
C          8.58829       -2.18299       -2.86029
H          1.73916        3.08038       -0.02700
H          1.18991        1.84643        0.89500
H          3.61619        1.89295        1.17308
H          3.72406        2.00123       -0.59136
H          2.68125       -0.25010       -0.81394
H          2.53869       -0.38218        0.93933
H          5.03636       -0.22030        1.17067
H          5.19183       -0.07067       -0.57872
H          4.04158       -2.33786       -0.83421
H          3.99038       -2.48232        0.91180
H          6.96400       -1.35359        1.36063
H          7.83527       -2.87271        1.13774
H          5.31428       -2.42083        2.83902
H          6.93323       -2.90119        3.38751
H          5.73428       -4.96435        3.21363
H          5.50908       -6.84276        1.94284
H          6.09612       -7.01616       -0.74256
H          4.38769       -6.48711       -0.73637
H          3.77400       -8.41521        0.71452
H          5.46629       -8.95553        0.74094
H          5.42106       -9.29157       -1.76334
H          3.74308       -8.71406       -1.82158
H          2.22752      -12.86622       -0.35248
H          2.18417      -15.78853       -3.36407
H          3.56983      -13.58192       -4.32449
H          5.61568       -4.70068       -0.81200
H          6.67462       -1.34098       -1.37061
H          6.01175       -2.78098       -2.10618
H          8.77599       -2.59417       -0.77014
H          9.00403       -4.61809       -2.59221
H          7.34865       -4.89662       -2.13621
H          9.80911       -4.84183       -0.25838
H          8.92542       -6.28448       -0.76838
H          8.16832       -5.12154        0.33339
H          7.98498       -2.47324       -3.73432
H          9.63505       -2.42710       -3.08421
H          8.51349       -1.09210       -2.75093
