62

C          1.66140        0.02360       -1.17246
N          2.79120        0.03654       -0.24770
C          3.12617       -1.22327        0.38493
C          2.31008       -1.52662        1.65657
C          2.71984       -2.77533        2.42973
C          2.51109       -4.07632        1.64639
O          2.52829       -5.10423        2.61582
C          2.64232       -6.41455        2.10007
C          3.08288       -7.34884        3.23199
C          4.60491       -7.35291        3.62849
C          5.32570       -6.05616        4.15392
C          4.80811       -5.44208        5.49021
F          5.73191       -4.53254        5.91405
F          3.63539       -4.77534        5.28418
F          6.61813       -6.42312        4.36850
F          5.32283       -5.10100        3.17350
F          4.76139       -8.29342        4.60286
F          5.29856       -7.74945        2.52278
F          2.34844       -7.12017        4.36035
F          2.82286       -8.62681        2.81624
N          2.48039       -0.32247        2.58774
C          2.11798        1.04081        1.98045
C          2.91700        1.15725        0.66099
C          0.59379        1.17815        1.92916
C          0.11822        2.53044        1.37924
C         -1.39087        2.71415        1.56713
C         -1.92657        4.00890        0.93342
N         -3.34592        4.18783        1.17230
C         -4.35566        3.50694        0.52064
C         -5.55289        3.82305        1.13435
C         -5.26056        4.71913        2.20069
C         -3.89380        4.92116        2.20596
H          1.85468       -0.71496       -1.96205
H          1.58213        1.00716       -1.65286
H          0.67739       -0.21312       -0.72048
H          4.20184       -1.22330        0.65059
H          2.98014       -2.04155       -0.33292
H          1.23718       -1.56089        1.41891
H          2.11744       -2.86216        3.34954
H          3.77489       -2.71399        2.74421
H          3.31536       -4.22762        0.90217
H          1.54455       -4.06106        1.10181
H          3.38019       -6.47737        1.28119
H          1.67327       -6.79812        1.73324
H          4.66547       -6.20865        6.26708
H          3.46660       -0.30133        2.89075
H          1.92146       -0.47679        3.43883
H          2.51856        1.77735        2.69663
H          3.98514        1.27058        0.92638
H          2.62677        2.08568        0.15325
H          0.20328        1.05955        2.95614
H          0.14323        0.37194        1.33142
H          0.36884        2.60417        0.30848
H          0.65979        3.34995        1.88233
H         -1.63876        2.72150        2.64061
H         -1.93026        1.85863        1.12976
H         -1.74543        4.00626       -0.15349
H         -1.40071        4.88397        1.34362
H         -4.13834        2.87039       -0.33149
H         -6.53263        3.46495        0.83569
H         -5.97239        5.18275        2.87572
H         -3.26640        5.54033        2.83969
