58

O          1.81556       -0.84591       -0.67252
C          2.73417       -0.18115       -0.24278
C          3.26117       -0.36884        1.20719
C          3.46656       -1.86047        1.69232
C          4.16356       -2.85736        0.67903
C          5.28904       -2.22006       -0.18747
O          5.00642       -1.39211       -1.03061
O          6.52676       -2.63203        0.03998
F          4.67420       -3.89368        1.41456
F          3.23171       -3.35513       -0.16755
F          4.24445       -1.79703        2.80349
F          2.26695       -2.38066        2.02038
F          4.44624        0.29236        1.35044
F          2.35221        0.21641        2.03846
C          3.32275        0.97218       -1.05855
C          2.60691        2.28378       -0.70955
C          2.96613        3.39876       -1.70890
C          4.44737        3.81891       -1.68700
C          4.87619        4.45144       -0.35578
C          6.37404        4.57245       -0.06543
C          7.07327        3.28444        0.50253
Br         7.19200        1.76219       -0.75536
F          8.31519        3.57071        0.91201
F          6.36258        2.85969        1.58097
Br         7.39007        5.25443       -1.60158
F          6.51022        5.48644        0.96011
C          2.50259        2.94629       -3.10213
C          3.12268        1.61377       -3.57545
N          3.08931        0.55372       -2.49611
C          4.56361        1.60249       -4.10133
O          5.40577        0.87124       -3.62716
C          4.93643        2.45841       -5.35388
C          5.32162        1.60352       -6.62950
C          4.29918        0.49744       -7.08192
C          2.85455        1.00782       -7.38672
O          2.05834        1.16128       -6.49000
O          2.57929        1.25876       -8.66311
F          4.82737       -0.09252       -8.19551
F          4.21832       -0.44077       -6.09514
F          5.46014        2.47581       -7.66418
F          6.50549        0.99916       -6.39859
F          3.91919        3.29503       -5.71526
F          6.01305        3.21400       -5.02797
H          6.53350       -3.32437        0.73429
H          4.40666        1.05307       -0.91225
H          2.88377        2.54902        0.31938
H          1.51697        2.12572       -0.70817
H          2.35019        4.27376       -1.44407
H          4.62192        4.54050       -2.49778
H          5.09761        2.96020       -1.90537
H          4.45476        3.90667        0.50292
H          4.48759        5.47764       -0.28903
H          2.71147        3.71162       -3.85678
H          1.41036        2.81189       -3.09858
H          2.51381        1.23518       -4.41789
H          3.85866       -0.11384       -2.70823
H          2.19488        0.02627       -2.49557
H          3.32899        1.01356       -9.24220
