57

C          0.42917        3.94600        7.58043
C          1.94101        3.93825        7.82094
C          2.65938        2.79698        7.09283
C          4.17143        2.75666        7.33784
C          4.87116        1.61258        6.59664
C          6.38065        1.53834        6.85040
C          7.05924        0.39272        6.09148
C          8.56618        0.28641        6.35325
C          9.21095       -0.87691        5.58999
C         10.74675       -0.96753        5.70219
P         11.39620       -1.17561        7.37209
N         10.51212       -2.46386        8.12695
O         10.89150       -3.64303        7.41001
O         11.01887       -2.53666        9.46102
C         13.19372       -1.39126        7.43222
C         13.98069       -0.26962        6.71674
C         13.70751        1.14709        7.23807
C         14.59965        2.20690        6.58175
C         14.32342        3.63015        7.08162
C         15.20793        4.68446        6.41187
H         -0.05851        4.77652        8.10863
H         -0.03577        3.01223        7.93018
H          0.19471        4.05043        6.51066
H          2.14242        3.86350        8.90309
H          2.37131        4.90203        7.49995
H          2.46774        2.88118        6.00852
H          2.21565        1.83394        7.40186
H          4.36367        2.66390        8.42137
H          4.61877        3.71895        7.03280
H          4.68980        1.71728        5.51276
H          4.40730        0.65383        6.88790
H          6.56357        1.42106        7.93330
H          6.84953        2.49618        6.56520
H          6.88967        0.51954        5.00859
H          6.57675       -0.56202        6.36382
H          8.72440        0.16668        7.44034
H          9.05836        1.23384        6.07176
H          8.98779       -0.78089        4.51635
H          8.76420       -1.83107        5.90807
H         11.23150       -0.04911        5.32842
H         11.15543       -1.80687        5.11763
H         11.01715       -0.09107        8.18629
H         10.06329       -4.15788        7.36194
H         10.22147       -2.70341        9.99963
H         13.39433       -2.37907        6.98892
H         13.44815       -1.45184        8.50213
H         13.79597       -0.32057        5.63207
H         15.04658       -0.51143        6.84742
H         13.84846        1.17136        8.33253
H         12.65055        1.42694        7.06300
H         14.46556        2.17009        5.48662
H         15.65711        1.95139        6.76588
H         14.46913        3.66514        8.17418
H         13.26169        3.87630        6.90887
H         16.27398        4.48874        6.59661
H         14.98549        5.68973        6.79257
H         15.05753        4.70142        5.32258
