99

C         -0.21391        9.85410       -3.37353
C          1.21676       10.31071       -3.07630
C          2.02345        9.29514       -2.25830
C          3.45454        9.75077       -1.95519
C          4.26788        8.73907       -1.14047
C          5.69814        9.20411       -0.84687
C          6.52946        8.19061       -0.05242
C          7.96354        8.66073        0.21397
C          8.82134        7.63546        0.96345
C         10.26889        8.09779        1.16817
C         11.14619        7.05155        1.86784
C         12.64357        7.37991        1.86751
N         13.42454        6.32531        2.50734
C         14.85404        6.46754        2.25963
C         15.36820        7.74126        2.92734
N         14.50318        8.90779        2.48159
C         12.99486        8.70338        2.57316
C         12.54946        8.78983        4.03811
C         13.11688        9.98313        4.78557
O         14.07952       10.64452        4.38486
O         12.48290       10.20598        5.92543
C         13.00876       11.27827        6.79429
C         12.46726       12.64633        6.41552
C         13.04188       13.73056        7.33787
C         12.54503       15.13908        6.99545
C         13.13292       16.22225        7.90489
C         12.65631       17.63686        7.56205
C         13.24219       18.71893        8.47586
C         12.76202       20.12975        8.12855
C         16.83559        8.04843        2.63232
C         17.37417        9.27934        3.37183
O         17.04106        9.16526        4.73992
Si        17.58969       10.21336        5.95332
C         16.71599        9.58032        7.48451
C         19.45411       10.07437        6.10292
C         17.10206       11.98092        5.53792
H         -0.76411       10.60589       -3.95591
H         -0.77779        9.67477       -2.44604
H         -0.22219        8.91706       -3.95000
H          1.19220       11.27252       -2.53623
H          1.74377       10.51197       -4.02450
H          2.05298        8.33284       -2.79966
H          1.49561        9.09003       -1.31008
H          3.42319       10.71304       -1.41406
H          3.97905        9.95748       -2.90490
H          4.30117        7.77698       -1.68161
H          3.74723        8.53145       -0.18909
H          5.66471       10.16102       -0.29645
H          6.21062        9.42371       -1.80028
H          6.55730        7.23280       -0.60111
H          6.02859        7.97426        0.90741
H          7.93846        9.60602        0.78450
H          8.44880        8.90201       -0.74835
H          8.82426        6.68399        0.40427
H          8.36310        7.41084        1.94205
H         10.26175        9.04221        1.74095
H         10.70861        8.34212        0.18499
H         11.03234        6.08724        1.34473
H         10.80030        6.87512        2.89880
H         12.94881        7.51564        0.80144
H         13.08705        5.40377        2.23276
H         15.10296        6.49665        1.17429
H         15.38856        5.61241        2.69402
H         15.23042        7.67636        4.01470
H         14.74450        9.15326        1.51315
H         14.66979        9.74695        3.11389
H         12.57020        9.54782        2.01108
H         12.82558        7.87161        4.58043
H         11.45381        8.84460        4.08053
H         14.10461       11.24765        6.74093
H         12.68202       10.96928        7.79458
H         11.36770       12.63626        6.47649
H         12.73586       12.87261        5.37184
H         14.14414       13.70993        7.27947
H         12.78664       13.49797        8.38607
H         11.44340       15.16423        7.05799
H         12.79508       15.36755        5.94455
H         14.23532       16.18520        7.84975
H         12.87611       15.99512        8.95443
H         11.55379       17.67445        7.61350
H         12.91638       17.86617        6.51331
H         14.34356       18.68001        8.42401
H         12.98195       18.48779        9.52269
H         13.04321       20.40660        7.10145
H         13.19535       20.87993        8.80387
H         11.66726       20.20936        8.20329
H         17.00147        8.16377        1.54747
H         17.41268        7.16608        2.94680
H         16.95367       10.21223        2.94235
H         18.46615        9.33123        3.21318
H         17.05436        8.56662        7.73915
H         15.62738        9.54671        7.34001
H         16.92174       10.22884        8.34770
H         19.76271        9.04265        6.32086
H         19.81914       10.71327        6.92026
H         19.96624       10.40027        5.18637
H         16.02326       12.07389        5.35599
H         17.63132       12.34942        4.64730
H         17.37059       12.64823        6.36974
