56

C         10.11646       -6.63842        3.18300
C          9.48406       -5.74231        2.41736
C          9.95627       -4.34190        2.30941
O         10.92244       -3.85759        2.88242
O          9.14476       -3.63784        1.47462
C          9.49010       -2.24512        1.27348
C          8.97705       -1.36690        2.41125
C          9.35670        0.10398        2.20380
C          8.99578        1.02226        3.38249
C          9.64986        0.66811        4.73405
C         11.17878        0.63761        4.63437
S         12.00982        0.66562        6.25995
C         11.79111       -1.08998        7.05007
C         11.76523       -2.18462        5.97879
C         11.51039       -3.62328        6.54257
C         10.05309       -4.05763        6.33394
C         12.48876       -4.61384        5.89652
C         13.03186       -1.24775        7.95563
O         13.23242       -0.09633        8.77368
C         10.51249       -0.94093        7.88093
C         13.89948        0.63351        5.57209
O         14.10122        0.04225        4.56528
C         14.78914        1.44596        6.43728
H          9.76577       -7.66688        3.25984
H         11.00880       -6.36187        3.74592
H          8.59497       -5.99994        1.84085
H          9.02069       -1.98258        0.31670
H         10.58255       -2.16138        1.17826
H          9.40467       -1.74937        3.35049
H          7.88355       -1.47046        2.49247
H          8.85355        0.49104        1.30426
H         10.43635        0.17686        1.98570
H          7.90519        1.01588        3.53443
H          9.25949        2.05978        3.12207
H          9.28134       -0.30594        5.08661
H          9.33876        1.41284        5.48158
H         11.55384        1.56174        4.16516
H         11.56967       -0.21319        4.06210
H         12.72332       -2.17743        5.43894
H         10.98890       -1.97707        5.23017
H         11.70808       -3.62559        7.62824
H          9.82217       -4.11625        5.26187
H          9.33714       -3.36671        6.80027
H          9.87833       -5.05098        6.76924
H         12.36611       -4.61773        4.80449
H         12.31227       -5.63253        6.26862
H         13.53251       -4.35316        6.12415
H         13.92756       -1.42384        7.33341
H         12.88236       -2.15215        8.56368
H         13.27990       -0.35306        9.70591
H          9.62631       -0.77973        7.25717
H         10.59702       -0.11484        8.59736
H         10.35239       -1.86774        8.45046
H         14.47302        2.49969        6.36618
H         15.82769        1.34294        6.10291
H         14.66159        1.15050        7.49004
