55

C          4.52509       -4.83998        2.51791
C          4.07493       -4.55564        1.08274
C          4.93030       -5.28221        0.03587
C          4.50293       -5.05473       -1.42338
C          4.69488       -3.62437       -1.92025
O          6.08434       -3.20968       -1.82851
C          6.81279       -3.39938       -3.00878
N          8.24536       -3.40137       -2.67958
C          8.76624       -2.73876       -1.62214
N          9.90492       -3.17186       -0.99667
C         10.15385       -2.30832        0.03994
N          9.26305       -1.36433        0.08063
N          8.38964       -1.60427       -0.98017
Si         7.12038       -0.22289       -1.06871
C          6.35641       -0.13749       -2.77421
C          5.92971       -0.58153        0.32006
C          8.14131        1.31198       -0.77388
C          9.09317       -4.39454       -3.36442
C          9.40169       -5.65542       -2.56702
C          8.50930       -6.16500       -1.61164
C          8.81268       -7.34103       -0.92273
C         10.00548       -8.02218       -1.18230
C         10.90077       -7.51839       -2.12957
C         10.60308       -6.33739       -2.81468
H          3.89677       -4.31183        3.24706
H          5.56508       -4.51974        2.68224
H          4.46917       -5.91380        2.74873
H          4.10339       -3.46680        0.90881
H          3.02022       -4.85259        0.95819
H          4.90008       -6.36461        0.23968
H          5.98479       -4.98063        0.15969
H          3.43667       -5.30669       -1.54869
H          5.04963       -5.74713       -2.08564
H          4.13950       -2.90615       -1.30153
H          4.33805       -3.50688       -2.95705
H          6.58720       -2.61022       -3.75112
H          6.60668       -4.38028       -3.47053
H         10.33670       -4.08064       -1.16939
H         10.99232       -2.40697        0.72157
H          5.53642       -0.84707       -2.92530
H          7.09992       -0.25494       -3.57475
H          5.94143        0.87605       -2.88000
H          5.42872       -1.54734        0.18828
H          5.16398        0.20566        0.36813
H          6.46187       -0.59198        1.28065
H          8.94260        1.41398       -1.51859
H          8.59200        1.32093        0.22475
H          7.48624        2.19083       -0.86809
H         10.02902       -3.90346       -3.67320
H          8.56963       -4.65126       -4.29695
H          7.58205       -5.63713       -1.38555
H          8.11355       -7.72451       -0.17866
H         10.23907       -8.94090       -0.64399
H         11.83540       -8.04109       -2.33396
H         11.30744       -5.94818       -3.55388
