30

C          0.72801        0.46688       -0.57610
C          2.25744        0.47750       -0.66568
C          2.82268       -0.93307       -0.88730
C          4.34149       -1.06937       -1.03904
N          4.87442       -0.17832       -2.17420
C          6.17573        0.42275       -1.68047
O          6.47023       -0.26032       -0.49177
C          5.18466       -0.51726        0.13977
C          5.30143       -1.34798        1.31673
C          5.33707       -1.97366        2.34984
N          4.66284       -2.48518       -1.41216
N          4.59890       -2.56307       -2.87358
N          5.89358       -3.04981       -1.01098
H          0.33866        1.47951       -0.41555
H          0.38700       -0.15931        0.25972
H          0.27446        0.07464       -1.49715
H          2.66970        0.91700        0.25602
H          2.55299        1.15901       -1.48674
H          2.34699       -1.38580       -1.77246
H          2.55231       -1.58675       -0.04407
H          4.19603        0.54573       -2.43455
H          4.91559       -0.95202       -2.95466
H          6.00144        1.50003       -1.52068
H          6.98738        0.25942       -2.39943
H          4.74256        0.45156        0.44287
H          5.37996       -2.53348        3.26314
H          3.72032       -3.02192       -3.13124
H          5.35951       -3.20338       -3.12366
H          5.73416       -3.60810       -0.17425
H          6.62301       -2.35479       -0.82296
