54

O          6.22074       -0.04497       -6.61414
C          5.21982        0.96920       -6.40382
C          5.38431        1.48005       -4.98960
O          5.16577        0.37172       -4.10662
C          5.88156        0.37140       -2.88245
C          6.21473       -1.09061       -2.59252
N          6.90090       -1.70744       -3.79038
C          8.33601       -1.22933       -3.89182
C          8.96654       -1.65543       -5.21831
N          8.82494       -3.07229       -5.50558
C          7.45057       -3.51245       -5.37180
C          6.75877       -3.26960       -3.99341
C          5.27064       -3.64221       -4.10059
C          4.44899       -3.04285       -5.24684
O          3.09553       -3.26389       -4.90780
C          2.18361       -2.83782       -5.92842
C          0.77063       -3.11411       -5.45518
C          7.45518       -4.03817       -2.82377
C          6.61815       -4.18077       -1.53255
O          7.56032       -4.32784       -0.47042
C          7.94857       -5.44149       -3.22615
H          6.19339       -0.31389       -7.54518
H          4.20817        0.54818       -6.53674
H          5.34682        1.80865       -7.10673
H          4.66197        2.28884       -4.78761
H          6.40561        1.87691       -4.84970
H          5.27313        0.76564       -2.05005
H          6.78535        1.00113       -2.95489
H          5.28008       -1.63601       -2.43257
H          6.85731       -1.20014       -1.71074
H          6.39749       -1.28555       -4.60121
H          8.87643       -1.63024       -3.02522
H          8.31553       -0.13572       -3.80826
H         10.03005       -1.38161       -5.20511
H          8.49548       -1.08138       -6.03285
H          9.47460       -3.64156       -4.96413
H          7.37581       -4.58031       -5.60971
H          6.86445       -2.98331       -6.14134
H          4.73229       -3.40898       -3.17140
H          5.23038       -4.73898       -4.18181
H          4.69052       -3.52700       -6.21301
H          4.63633       -1.95625       -5.37280
H          2.40258       -3.38207       -6.86719
H          2.33311       -1.75748       -6.12623
H          0.62710       -4.18545       -5.26344
H          0.04768       -2.80284       -6.22070
H          0.55195       -2.56358       -4.53081
H          8.34604       -3.46808       -2.51643
H          5.96020       -5.06407       -1.60780
H          5.97049       -3.31001       -1.34436
H          7.10419       -4.67015        0.31348
H          7.13729       -6.06091       -3.63476
H          8.33128       -5.94171       -2.32842
H          8.76578       -5.42778       -3.95777
