77

C          0.61539       -0.11779        0.02995
C          2.14235       -0.13081       -0.06706
C          2.76983        1.25255        0.12954
C          4.29521        1.26357       -0.00234
C          4.91483        2.65232        0.17902
C          6.43710        2.67277        0.01506
C          7.05141        4.06598        0.17741
C          8.57195        4.09256       -0.00262
C          9.17814        5.49125        0.14048
C         10.69997        5.52495       -0.02705
C         11.29071        6.93153        0.10178
C         12.81638        6.97901       -0.02320
C         13.38152        8.39665        0.09768
C         14.90957        8.46949        0.02817
C         15.43691        9.90194        0.14693
C         16.96395       10.01417        0.12925
C         17.43592       11.46805        0.25469
C         18.96019       11.59791        0.28040
C         19.53103       13.03187        0.41742
C         20.97805       13.01354        0.50085
C         22.18364       12.96472        0.58402
C         18.89846       13.85246        1.58236
N         17.80896       14.65304        1.02601
C         17.81523       14.87158       -0.27049
S         19.03070       14.03878       -1.12785
C         16.84852       15.82131       -0.93152
C         15.42208       15.65700       -0.37592
O         15.44080       15.96646        1.02749
C         17.36733       17.27317       -0.80597
H          0.19280       -1.12255       -0.10876
H          0.17457        0.53784       -0.73583
H          0.28214        0.25097        1.01164
H          2.44681       -0.53018       -1.04936
H          2.55545       -0.82618        0.68325
H          2.48444        1.64380        1.12218
H          2.33713        1.95340       -0.60650
H          4.57716        0.86642       -0.99346
H          4.73183        0.56912        0.73701
H          4.64888        3.04401        1.17665
H          4.46260        3.34871       -0.54916
H          6.70104        2.27279       -0.97979
H          6.89344        1.98465        0.74824
H          6.79523        4.46455        1.17491
H          6.58744        4.75428       -0.55107
H          8.82888        3.68384       -0.99568
H          9.03883        3.41489        0.73360
H          8.91284        5.90407        1.12983
H          8.71527        6.16529       -0.60188
H         10.97023        5.10333       -1.01096
H         11.16459        4.86300        0.72455
H         10.99482        7.36151        1.07513
H         10.84167        7.58576       -0.66637
H         13.12103        6.54368       -0.99082
H         13.26677        6.33762        0.75427
H         13.04330        8.83989        1.05126
H         12.95015        9.02816       -0.69917
H         15.25926        8.02621       -0.92002
H         15.34326        7.85128        0.83296
H         15.05425       10.34869        1.08219
H         15.01822       10.51019       -0.67478
H         17.36021        9.57848       -0.80328
H         17.38835        9.41642        0.95343
H         17.00004       11.89459        1.17464
H         17.02289       12.04609       -0.58931
H         19.40047       11.14422       -0.62126
H         19.37257       11.03245        1.13348
H         23.25202       12.91829        0.65381
H         19.64292       14.52612        2.03218
H         18.51513       13.17896        2.36039
H         17.05860       15.08765        1.58462
H         16.80381       15.55373       -1.99811
H         15.06105       14.62828       -0.54483
H         14.76459       16.35332       -0.92063
H         14.53527       15.94270        1.37497
H         17.38056       17.60102        0.24027
H         16.69948       17.93840       -1.36819
H         18.37704       17.37207       -1.22269
