80

C          4.22163        1.53897       -0.89864
C          5.64991        1.47936       -1.38589
O          6.04093        2.78377       -2.01959
C          6.51469        3.70520       -1.22773
O          6.75123        3.73828       -0.05431
S          6.85276        5.24859       -2.33013
C          5.62426        6.36951       -1.53476
C          5.57992        7.73430       -2.22458
C          4.92868        7.74293       -3.61312
S          3.12491        7.51319       -3.58648
C          2.89458        5.83570       -4.09894
S          4.09763        4.72623       -4.34329
N          1.54802        5.54110       -4.28925
C          0.43339        6.38616       -4.14861
C         -0.65218        5.61436       -4.43916
N         -0.26782        4.31394       -4.76267
C          1.02882        4.28867       -4.66960
C          8.40247        5.79286       -1.51422
C          9.53939        4.81933       -1.86877
O          9.54467        4.49257       -3.24332
C         10.32489        5.35498       -4.09408
C         11.67182        4.71068       -4.41853
O         12.34909        5.64600       -5.24043
C         13.55714        5.27177       -5.80253
C         14.18822        4.04326       -5.58235
C         15.40670        3.77606       -6.21540
C         16.02840        4.69718       -7.07252
C         15.37367        5.92750       -7.25674
C         14.15843        6.21675       -6.63892
C         17.38958        4.37432       -7.71623
C         17.37501        3.01441       -8.48837
C         16.61930        2.77746       -9.83150
C         17.33498        3.42559      -11.03433
C         16.63302        1.25048      -10.06013
C         15.15486        3.24803       -9.79682
C         17.89969        5.53147       -8.59297
C         18.41436        4.20077       -6.56366
H          3.94204        0.54371       -0.52546
H          3.53359        1.80199       -1.71173
H          4.10362        2.25007       -0.07097
H          5.79087        0.77334       -2.21091
H          6.37155        1.27852       -0.58502
H          5.89187        6.43662       -0.47272
H          4.66458        5.84375       -1.64212
H          6.59028        8.16652       -2.30522
H          5.02655        8.40562       -1.54949
H          5.33731        6.96872       -4.28126
H          5.06991        8.72532       -4.08374
H          0.52520        7.42969       -3.87314
H         -1.69689        5.90966       -4.44243
H          1.68899        3.44944       -4.86048
H          8.22605        5.85213       -0.43124
H          8.58303        6.79778       -1.92237
H          9.41042        3.87921       -1.31125
H         10.49000        5.27195       -1.53614
H         10.48257        6.34188       -3.62653
H          9.75163        5.50378       -5.01989
H         11.50797        3.75249       -4.94195
H         12.24037        4.50357       -3.49186
H         13.75186        3.29011       -4.92660
H         15.87637        2.81006       -6.02303
H         15.81088        6.68851       -7.90199
H         13.66370        7.17551       -6.79905
H         17.01137        2.25339       -7.77810
H         18.43160        2.75240       -8.67267
H         18.39580        3.13483      -11.06877
H         17.28533        4.52071      -11.02043
H         16.86884        3.08974      -11.97261
H         17.66148        0.86024      -10.08748
H         16.15252        0.99618      -11.01628
H         16.09383        0.72272       -9.25905
H         15.07274        4.33764       -9.68700
H         14.60189        2.78807       -8.96513
H         14.65041        2.96762      -10.73390
H         17.19565        5.81087       -9.38651
H         18.84635        5.24682       -9.07159
H         18.09426        6.42684       -7.98481
H         18.16121        3.34740       -5.91936
H         18.44600        5.10176       -5.93471
H         19.42187        4.02942       -6.96999
