80

C          0.42220       -0.25687       -0.10638
C          1.94264       -0.10577       -0.19489
C          2.56415        0.53419        1.05108
C          4.08632        0.68533        0.97366
C          4.70453        1.30953        2.22822
C          6.23000        1.43425        2.16941
C          6.84321        2.01516        3.44723
C          8.37346        2.07988        3.42220
C          8.98227        2.57705        4.73696
C         10.51372        2.56877        4.74243
C         11.11593        2.96928        6.09313
C         12.64562        2.89959        6.10880
C         13.28750        3.16265        7.48162
C         14.82002        2.93110        7.44842
C         15.41105        4.29516        7.49939
N         14.49780        5.17683        7.74842
C         13.12996        4.64707        7.93772
C         12.59314        5.00855        9.36661
C         13.50952        4.52597       10.52694
C         13.51132        3.04253       10.98547
C         14.89430        2.68236       11.54912
C         12.42605        2.74891       12.03288
C         12.49720        6.55894        9.42898
O         13.76036        7.24437        9.26193
C         11.14319        4.50352        9.46307
C         16.84090        4.65802        7.30486
C         17.79471        3.92175        8.26724
O         17.47242        3.02166        9.01251
O         19.02308        4.43226        8.13246
C         20.05804        3.81593        8.95489
H          0.00888       -0.71874       -1.01346
H         -0.06979        0.71875        0.02317
H          0.13256       -0.88699        0.74800
H          2.20245        0.49866       -1.08054
H          2.40238       -1.09496       -0.36084
H          2.30325       -0.07024        1.93812
H          2.10603        1.52520        1.21862
H          4.34932        1.29661        0.09239
H          4.54200       -0.30545        0.79886
H          4.42610        0.70374        3.10872
H          4.26154        2.30673        2.39787
H          6.51609        2.05963        1.30558
H          6.66833        0.43874        1.97850
H          6.52344        1.40390        4.30979
H          6.43429        3.02512        3.62633
H          8.70401        2.72862        2.59228
H          8.77382        1.07545        3.19788
H          8.61576        1.94431        5.56462
H          8.61721        3.59683        4.95188
H         10.89198        3.24310        3.95438
H         10.87199        1.55964        4.47448
H         10.71742        2.30505        6.87964
H         10.77092        3.98498        6.35275
H         13.06425        3.60195        5.36439
H         12.95563        1.89372        5.78081
H         12.82430        2.49136        8.21384
H         15.16189        2.37783        6.56022
H         15.21467        2.37399        8.31565
H         14.66113        6.16935        7.99146
H         12.48309        5.18628        7.22534
H         13.25512        5.13525       11.41219
H         14.54639        4.80753       10.28210
H         13.32809        2.38656       10.11878
H         15.13861        3.31482       12.41697
H         15.69076        2.81560       10.80383
H         14.92307        1.63844       11.88944
H         12.58587        3.36387       12.93215
H         12.46415        1.69659       12.34498
H         11.41067        2.94693       11.66993
H         12.03365        6.85471       10.38161
H         11.85083        6.92299        8.61541
H         14.12953        7.44951       10.13409
H         11.07359        3.41215        9.38665
H         10.52370        4.93031        8.66122
H         10.69754        4.79824       10.42195
H         17.00530        5.74104        7.38101
H         17.13704        4.36444        6.28262
H         20.96787        4.37673        8.72748
H         20.16963        2.75959        8.68364
H         19.79631        3.90297       10.01563
