79

C         15.67126       -6.25414        0.23247
C         14.53770       -5.30394        0.62540
C         15.03492       -3.94958        1.14310
C         13.90618       -2.98777        1.52548
C         14.39697       -1.61683        2.00285
C         13.25626       -0.66717        2.38175
C         13.72227        0.72939        2.80697
C         12.56237        1.63422        3.23748
C         12.99633        3.04845        3.65250
C         11.83389        3.81545        4.26779
O         12.20744        5.12305        4.78245
C         12.11416        6.18359        3.87024
C         12.42757        7.44309        4.59804
N         12.87322        7.37749        5.80852
C         13.07759        8.67399        6.47033
C         12.93324        9.66258        5.30009
C         12.24365        8.87074        4.13725
C         10.71044        9.11276        4.09313
O         10.16754        8.58290        5.28436
C          8.73560        8.70236        5.37250
C          8.27745        8.06119        6.67079
C          6.75267        8.06954        6.83164
C          6.28565        7.42642        8.14334
C          4.76284        7.39982        8.29192
C         12.88528        9.13217        2.75538
C         12.75165       10.58127        2.27915
O         13.53360       10.70412        1.11381
C         13.48714       12.02629        0.55421
C         14.34557       12.05651       -0.69372
H         15.28352       -7.21476       -0.13350
H         16.32944       -6.46684        1.08811
H         16.29562       -5.82328       -0.56441
H         13.90755       -5.77869        1.39665
H         13.87713       -5.13861       -0.24274
H         15.67097       -3.47839        0.37276
H         15.69096       -4.11165        2.01667
H         13.28497       -3.44839        2.31391
H         13.23674       -2.84995        0.65799
H         15.01228       -1.15449        1.21102
H         15.06846       -1.74767        2.86959
H         12.66637       -1.11761        3.19948
H         12.56283       -0.57312        1.52761
H         14.27486        1.20240        1.97660
H         14.44141        0.64061        3.63980
H         12.03438        1.15672        4.08151
H         11.82509        1.70086        2.41908
H         13.40014        3.58675        2.77834
H         13.80903        2.98904        4.39446
H         11.44483        3.28084        5.14572
H         10.99996        3.93728        3.55417
H         11.10148        6.27556        3.42659
H         12.82259        6.09473        3.01858
H         12.95852        6.46178        6.26221
H         14.06272        8.69099        6.95345
H         12.30151        8.79192        7.23928
H         13.92399       10.00535        4.97410
H         12.35150       10.54359        5.59035
H         10.27598        8.61911        3.20070
H         10.51293       10.19743        4.00352
H          8.27614        8.20219        4.49848
H          8.45544        9.77195        5.33190
H          8.74727        8.59101        7.51578
H          8.64968        7.02360        6.70071
H          6.29040        7.53801        5.98165
H          6.37896        9.10678        6.78123
H          6.73173        7.97116        8.99232
H          6.68071        6.39798        8.20196
H          4.33987        8.41477        8.27068
H          4.46260        6.93555        9.24057
H          4.29181        6.82754        7.47911
H         12.43870        8.47305        1.99501
H         13.95811        8.88884        2.80193
H         13.10023       11.28799        3.06129
H         11.69279       10.83281        2.06585
H         13.85186       12.75337        1.30549
H         12.43697       12.28763        0.32077
H         15.38841       11.80585       -0.45887
H         14.32556       13.06064       -1.13768
H         13.97566       11.34303       -1.44164
