61

C          8.50529       -2.18967       -9.37766
C          8.00014       -2.59016       -7.98952
C          7.99258       -1.42218       -6.99701
C          7.41891       -1.78724       -5.62236
C          7.46963       -0.65468       -4.61190
O          6.64308        0.43220       -5.10166
C          6.68740        1.60821       -4.35441
N          7.98115        2.31481       -4.43997
C          8.64455        2.69409       -5.54806
N          9.90384        3.17243       -5.54434
N         10.36472        3.46800       -6.79668
C          9.37532        3.16457       -7.59347
N          8.28253        2.66363       -6.86378
C          6.96281        2.40194       -7.42726
C          6.00766        3.56962       -7.14814
O          6.26181        4.46350       -6.36620
O          4.89079        3.40575       -7.85771
C          3.81125        4.38800       -7.64054
C          2.93363        3.97791       -6.47430
C          9.39913        3.32759       -9.07270
C         10.82247        3.59128       -9.62866
C         11.66893        2.29839       -9.65653
N         13.08491        2.44012       -9.91166
C         13.87300        3.01693       -8.82443
C         15.34115        3.06445       -9.21213
O         15.45349        3.95288      -10.33134
O         10.73031        4.19251      -10.91556
H          8.50024       -3.04336      -10.06785
H          9.53571       -1.80533       -9.33612
H          7.87215       -1.40584       -9.82177
H          8.62190       -3.40700       -7.58812
H          6.97970       -2.99925       -8.07254
H          7.40371       -0.59700       -7.43106
H          9.02221       -1.03769       -6.87582
H          7.98108       -2.63304       -5.19393
H          6.37678       -2.12966       -5.72406
H          8.50792       -0.29748       -4.48552
H          7.08757       -0.97224       -3.62619
H          6.53066        1.43845       -3.27576
H          5.88499        2.25534       -4.73098
H          8.50687        2.39342       -3.57604
H         10.50189        3.34191       -4.74235
H          6.55637        1.47420       -6.99862
H          7.07297        2.24541       -8.50545
H          3.26731        4.37726       -8.59150
H          4.27308        5.37139       -7.48813
H          2.52249        2.97084       -6.62159
H          2.09156        4.67889       -6.39387
H          3.48419        4.00983       -5.52485
H          8.75689        4.17787       -9.35638
H          8.97260        2.43047       -9.55539
H         11.30810        4.34723       -8.99462
H         11.23277        1.64078      -10.43497
H         11.54724        1.76316       -8.69926
H         13.26360        2.95947      -10.77291
H         13.76254        2.37593       -7.93392
H         13.55716        4.04057       -8.53244
H         15.68384        2.04976       -9.47946
H         15.93663        3.42810       -8.35509
H         16.35399        3.89862      -10.68407
H         10.59057        3.49573      -11.57936
