49

C          0.67956       -0.79086       -0.43981
C          2.18929       -0.64551       -0.23885
C          3.01992       -0.98148       -1.48660
N          2.61994       -0.13082       -2.64219
C          2.78601        1.19617       -2.68617
N          2.28511        1.62928       -3.85088
C          1.77806        0.57105       -4.58669
C          1.98547       -0.55892       -3.81349
C          1.69388       -1.98553       -4.12515
C          2.84417       -2.63745       -4.93159
O          2.66043       -4.03000       -5.13366
C          1.83093       -4.40761       -6.21927
C          0.52551       -5.05746       -5.75194
F          0.74641       -6.15983       -5.00523
F         -0.24202       -4.21411       -5.00444
F         -0.20834       -5.42009       -6.83554
C          1.18917        0.78251       -5.95305
C          0.08610       -0.18957       -6.32824
C          0.23418       -1.02974       -7.43856
C         -0.77263       -1.93766       -7.78216
C         -1.93642       -2.01326       -7.01530
C         -2.09831       -1.16647       -5.91398
C         -1.09525       -0.25798       -5.57416
C          4.52828       -0.87763       -1.25392
O          5.17947       -1.20391       -2.47545
H          0.14689       -0.56945        0.49289
H          0.40949       -1.81280       -0.74075
H          0.29559       -0.10157       -1.20558
H          2.52656       -1.32193        0.56088
H          2.43467        0.37323        0.10517
H          2.80512       -2.00904       -1.80602
H          3.23526        1.81607       -1.92029
H          2.28133        2.60125       -4.14826
H          0.75997       -2.02906       -4.69648
H          1.52228       -2.56804       -3.21051
H          3.78882       -2.53859       -4.37811
H          2.95950       -2.11284       -5.89786
H          2.36178       -5.16025       -6.82236
H          1.56862       -3.55489       -6.86484
H          1.99554        0.72630       -6.70236
H          0.80266        1.81500       -6.00317
H          1.14126       -0.96999       -8.04489
H         -0.64604       -2.58746       -8.64875
H         -2.71772       -2.72719       -7.27546
H         -3.01106       -1.21317       -5.31937
H         -1.23149        0.39983       -4.71246
H          4.78587       -1.58271       -0.44578
H          4.80010        0.13817       -0.90682
H          6.13297       -1.28122       -2.31702
