45

C          5.16830        5.16868        5.75717
C          5.12202        5.73355        4.33551
C          5.33927        4.66744        3.25636
C          5.31392        5.22114        1.82779
C          5.53793        4.13314        0.77164
C          5.50811        4.61759       -0.66893
O          6.54025        5.64619       -0.93648
C          7.77458        5.21550       -1.15871
O          8.17355        4.06717       -1.16211
C          8.69433        6.41309       -1.47310
N         10.07749        6.06607       -1.17784
N         10.63440        6.53219       -0.02434
C         11.82846        5.96410        0.02496
N         11.99549        5.14615       -1.08016
C         10.87564        5.21098       -1.83295
C         10.64585        4.51235       -3.13475
C         11.49366        5.19234       -4.22701
O         11.17428        6.57944       -4.18693
C         10.91190        3.00113       -3.02789
C         12.79737        6.13986        1.02728
C         13.64056        6.27580        1.88451
H          5.00832        5.95510        6.50685
H          6.14001        4.69889        5.97059
H          4.39210        4.40418        5.90900
H          5.88614        6.52214        4.22617
H          4.15137        6.22907        4.16603
H          4.56792        3.88403        3.35805
H          6.30513        4.16159        3.43357
H          6.08576        6.00308        1.72776
H          4.34843        5.72230        1.64122
H          4.74454        3.37005        0.84901
H          6.48314        3.60064        0.96043
H          4.57699        5.14499       -0.90883
H          5.66616        3.79602       -1.37935
H          8.44293        7.28468       -0.86095
H          8.60381        6.68861       -2.53284
H         12.82059        4.58924       -1.28845
H          9.58939        4.66402       -3.39258
H         11.23935        4.73348       -5.19702
H         12.57096        5.01741       -4.04112
H         11.62137        7.03636       -4.91634
H         11.96508        2.77819       -2.80175
H         10.67496        2.51968       -3.98457
H         10.27948        2.55461       -2.25247
H         14.37729        6.40798        2.65281
