57

C          2.58966        0.66035       -0.20630
C          1.09076        0.56755       -0.33585
C          0.46760       -0.58818       -0.81049
C         -0.92285       -0.64812       -0.92295
C         -1.75739        0.42235       -0.58529
C         -1.11230        1.59115       -0.12546
C          0.27616        1.65887        0.01022
O         -1.94332        2.66745        0.17911
C         -1.38819        3.83195        0.74924
C         -2.53572        4.86269        0.76072
C         -2.13458        6.21242        1.35661
N         -1.31240        7.01752        0.37313
C         -2.03314        7.17180       -1.04189
C         -2.25491        5.72841       -1.52210
N         -3.15140        5.10022       -0.55097
C         -2.82503        5.69590       -2.94289
C         -2.84465        4.26250       -3.48753
C         -2.95411        4.04393       -4.99692
C         -4.36059        4.29676       -5.64289
Br        -4.93411        6.17714       -5.66926
F         -4.37768        3.83504       -6.90237
F         -5.27549        3.59163       -4.92584
Br        -1.56905        5.02347       -5.99220
F         -2.72673        2.69756       -5.20616
N         -3.18565        7.95638       -0.83979
C         -3.26727        0.24977       -0.69579
C         -3.98454        0.34026        0.66452
C         -3.92126        1.16728       -1.74419
H          3.05393       -0.33264       -0.24186
H          2.88587        1.13925        0.73760
H          3.02250        1.25529       -1.02556
H          1.06920       -1.45657       -1.08248
H         -1.38838       -1.56950       -1.27908
H          0.75520        2.55601        0.40370
H         -0.52066        4.18395        0.15512
H         -1.02935        3.64744        1.77919
H         -3.32360        4.45920        1.41557
H         -1.54727        6.11006        2.27808
H         -3.02439        6.81784        1.56429
H         -0.38557        6.59057        0.24110
H         -1.17624        7.96608        0.74437
H         -1.28467        7.68974       -1.65671
H         -1.25558        5.24036       -1.56832
H         -3.51737        4.21728       -0.90795
H         -2.18794        6.32006       -3.58850
H         -3.83091        6.13607       -2.95748
H         -3.67005        3.68265       -3.04951
H         -1.91514        3.74345       -3.20694
H         -4.04673        7.41187       -0.81219
H         -3.25923        8.78187       -1.42384
H         -3.40662       -0.78127       -1.05935
H         -3.92998        1.35387        1.08487
H         -3.53849       -0.35169        1.39093
H         -5.04582        0.07708        0.55404
H         -3.93935        2.21025       -1.39537
H         -4.96225        0.86507       -1.92403
H         -3.38521        1.13111       -2.70202
