38

N          5.94641        0.11872       -0.65143
C          4.77457        0.92010       -1.06476
C          3.82674        1.16006        0.11139
C          4.45815        1.78035        1.37014
N          5.09107        3.09789        1.17560
C          4.17381        4.25347        1.03484
N          3.51094        4.52402        2.26857
O          4.91856        5.36420        0.54954
C          6.05226        5.55402        1.36974
N          7.00287        4.46384        1.12893
C          6.44423        3.22434        1.05431
N          7.19687        2.13189        0.91684
C          8.32514        4.82159        0.52666
C          9.53214        4.40318        1.37483
O          9.81612        3.00729        1.19230
C          8.43520        4.45115       -0.95776
H          6.54957       -0.06233       -1.45601
H          5.64889       -0.79938       -0.31206
H          4.20433        0.45627       -1.88660
H          5.15192        1.88169       -1.44870
H          3.37425        0.20515        0.42639
H          2.98694        1.77921       -0.23936
H          5.21118        1.11395        1.80693
H          3.67024        1.90631        2.12572
H          3.45833        4.05256        0.22226
H          3.77456        3.95972        3.06775
H          2.51020        4.67312        2.20673
H          5.75463        5.58712        2.43192
H          6.51411        6.50399        1.08589
H          8.21571        2.23615        1.01454
H          6.80733        1.27348        0.45124
H          8.33431        5.91924        0.59453
H          9.32953        4.62833        2.43467
H         10.39492        5.00599        1.04608
H         10.56671        2.75655        1.75280
H          8.46537        3.36877       -1.12277
H          9.35980        4.87349       -1.37239
H          7.58739        4.87006       -1.51391
