48

O          5.99473        1.00065       -5.84032
C          7.14641        0.20776       -5.53615
C          6.65120       -1.00394       -4.76276
N          5.89221       -0.56519       -3.57279
C          5.16312       -1.63382       -2.87295
C          6.09446       -2.62054       -2.14939
C          7.13702       -1.97745       -1.21863
N          6.62258       -1.25848       -0.04218
C          6.40945        0.07969       -0.10565
N          5.97983        0.74741        0.99580
C          5.70808        2.15635        1.06551
C          4.42116        2.57779        1.42216
C          4.15432        3.94219        1.54969
C          5.16037        4.88185        1.30586
C          6.44266        4.45549        0.95009
C          6.72776        3.09160        0.84124
N          6.65322        0.75798       -1.23795
C          6.32188       -1.97953        1.21701
C          7.01221       -3.33775        1.34971
C          6.73499       -3.94397        2.71817
F          5.40404       -4.12588        2.92752
F          7.34101       -5.14365        2.83944
F          7.19258       -3.14600        3.72383
O          5.32970       -3.53125       -1.35807
H          6.25751        1.74484       -6.40255
H          7.86913        0.78021       -4.92635
H          7.65781       -0.13523       -6.45071
H          7.51743       -1.60915       -4.45808
H          6.01844       -1.62634       -5.42349
H          5.21410        0.12437       -3.91228
H          4.51931       -2.21649       -3.56107
H          4.49784       -1.16978       -2.12844
H          6.68822       -3.17706       -2.89962
H          7.76699       -1.28957       -1.79661
H          7.79745       -2.77344       -0.85877
H          5.71057        0.19900        1.80442
H          3.63653        1.84088        1.60181
H          3.15493        4.27016        1.83626
H          4.94688        5.94633        1.40394
H          7.23517        5.18443        0.77946
H          7.74028        2.75479        0.61397
H          6.54038        0.28432       -2.18440
H          6.42378        1.74889       -1.20547
H          5.23305       -2.11821        1.31072
H          6.67668       -1.36315        2.05711
H          8.10416       -3.24761        1.26358
H          6.64551       -4.04888        0.59917
H          4.74590       -4.04794       -1.93695
