103

C         -0.06220        0.47505       -0.58203
C          1.46680        0.42324       -0.64228
C          2.02297       -0.98838       -0.86329
C          3.55306       -1.04126       -0.92181
C          4.12223       -2.44884       -1.12987
C          5.65319       -2.48199       -1.17088
C          6.24840       -3.88078       -1.36343
C          7.78044       -3.88437       -1.37970
C          8.40777       -5.26990       -1.56780
C          9.93912       -5.24570       -1.52085
C         10.59796       -6.61609       -1.71316
C         12.12237       -6.57617       -1.55992
C         12.80830       -7.93196       -1.75928
C         14.32105       -7.88406       -1.51640
C         15.02168       -9.23293       -1.71377
C         16.51293       -9.19837       -1.36197
C         17.21574      -10.54941       -1.55039
C         18.68063      -10.51941       -1.08798
C         19.43949      -11.85326       -1.10284
N         18.78728      -12.74854       -0.04913
C         19.40516      -14.11672        0.05783
C         19.40233      -14.73910       -1.32081
N         20.15798      -13.91648       -2.25415
C         19.51096      -12.60470       -2.45236
C         20.22470      -11.68609       -3.47951
C         21.54332      -11.07653       -3.04312
C         21.68337       -9.68273       -3.00156
C         22.88788       -9.10180       -2.59402
C         23.96553       -9.90493       -2.22499
C         23.86066      -11.30515       -2.27093
C         22.64659      -11.86872       -2.68212
C         25.03044      -12.18043       -1.89831
C         20.43907      -14.66774       -3.49648
C         21.18916      -15.95620       -3.23375
C         20.72964      -17.15995       -3.77573
C         21.44549      -18.34289       -3.56407
C         22.61367      -18.33044       -2.80536
C         23.09214      -17.13397       -2.24192
C         22.36732      -15.95914       -2.46917
C         24.35900      -17.11967       -1.42544
H         -0.42533        1.49921       -0.41845
H         -0.45148       -0.14968        0.23595
H         -0.51166        0.10905       -1.51756
H          1.88612        0.83385        0.29233
H          1.82704        1.08468       -1.44860
H          1.60579       -1.40204       -1.79886
H          1.66423       -1.65131       -0.05572
H          3.96626       -0.61846        0.01137
H          3.90941       -0.38142       -1.73281
H          3.71998       -2.87171       -2.06762
H          3.76296       -3.11124       -0.32252
H          6.04871       -2.04722       -0.23562
H          6.00925       -1.82143       -1.98134
H          5.86857       -4.31549       -2.30502
H          5.88924       -4.54574       -0.55799
H          8.15145       -3.44596       -0.43597
H          8.13681       -3.21317       -2.18119
H          8.07319       -5.69804       -2.52919
H          8.03007       -5.95222       -0.78582
H         10.26154       -4.82318       -0.55250
H         10.31689       -4.55006       -2.29084
H         10.33539       -7.01537       -2.70846
H         10.17819       -7.32897       -0.98141
H         12.37184       -6.18875       -0.55630
H         12.54279       -5.84771       -2.27531
H         12.60907       -8.29911       -2.78129
H         12.35531       -8.67388       -1.07789
H         14.50943       -7.52471       -0.48929
H         14.77758       -7.13436       -2.18583
H         14.89558       -9.56455       -2.75911
H         14.52093       -9.99599       -1.09113
H         16.63227       -8.86980       -0.31462
H         17.02463       -8.43827       -1.97666
H         17.15465      -10.84927       -2.60864
H         16.63503      -11.31141       -0.99238
H         18.73207      -10.11412       -0.06084
H         19.25438       -9.80498       -1.69268
H         20.47029      -11.70316       -0.74865
H         17.78911      -12.84324       -0.29540
H         18.81506      -12.25846        0.85486
H         18.81779      -14.69672        0.78157
H         20.42849      -13.98032        0.42958
H         18.34967      -14.91056       -1.65469
H         19.87555      -15.72784       -1.25374
H         18.47134      -12.75564       -2.82858
H         19.52504      -10.87554       -3.72744
H         20.34554      -12.24377       -4.41805
H         20.85217       -9.04272       -3.30766
H         22.98541       -8.01579       -2.57164
H         24.90296       -9.44325       -1.90843
H         22.56392      -12.95427       -2.71882
H         25.89704      -11.97760       -2.54405
H         24.78478      -13.24584       -1.99521
H         25.35327      -11.99677       -0.86301
H         21.05288      -14.03073       -4.14717
H         19.50740      -14.89318       -4.05655
H         19.81270      -17.17446       -4.36844
H         21.08436      -19.27882       -3.99160
H         23.16509      -19.25869       -2.64348
H         22.72321      -15.02408       -2.03069
H         25.22954      -17.38455       -2.04378
H         24.31497      -17.85121       -0.60598
H         24.54813      -16.13029       -0.98928
