49

C          0.69401        6.54616        4.53485
C          1.61985        5.79559        3.57673
N          1.21076        4.39276        3.37518
C          0.38511        4.04609        2.36827
S         -0.24764        5.16574        1.27468
S          0.07662        2.28377        2.28063
C         -1.07197        2.09448        0.88241
C         -2.54092        1.90326        1.28209
C         -3.07854        3.04174        2.17015
C         -4.47833        3.55524        1.79732
C         -5.60934        2.53969        1.98490
C         -5.81187        2.05829        3.42497
O         -4.53614        3.95933        0.38706
C         -3.83755        5.13877        0.26813
N         -4.33236        5.97944        1.49313
C         -4.74936        4.91087        2.51004
C         -3.35377        6.96544        1.96767
C         -3.65290        8.25741        2.01863
C          1.79425        3.42073        4.31983
C          3.15809        2.89009        3.87313
H          1.06107        7.57094        4.67929
H          0.64815        6.06439        5.52106
H         -0.32383        6.60142        4.12640
H          2.64657        5.77326        3.96834
H          1.63965        6.28187        2.59436
H         -0.69754        1.22082        0.33256
H         -0.93024        2.98953        0.25666
H         -2.67499        0.93325        1.78114
H         -3.11646        1.84994        0.34432
H         -2.36640        3.88175        2.13817
H         -3.10690        2.73458        3.22541
H         -5.39880        1.68178        1.32931
H         -6.53459        2.99687        1.60068
H         -4.93886        1.51195        3.80584
H         -6.66813        1.37460        3.47180
H         -6.02178        2.88443        4.12059
H         -4.10910        5.65858       -0.65819
H         -2.74174        5.05882        0.39091
H         -5.17924        6.47980        1.19832
H         -5.81129        5.06670        2.73168
H         -4.15822        5.05507        3.41994
H         -2.38317        6.52033        2.20893
H         -4.63122        8.65112        1.73350
H         -2.90753        8.97614        2.35435
H          1.07828        2.59963        4.46412
H          1.87735        3.93484        5.28816
H          3.08450        2.35632        2.91752
H          3.54629        2.19252        4.62700
H          3.88713        3.70335        3.76048
