72

C          2.10329       -0.70487        1.89224
C          3.62052       -0.58141        1.72989
C          4.40306       -1.53960        2.63440
C          5.92333       -1.44155        2.47514
C          6.69515       -2.39819        3.39055
C          8.21263       -2.32452        3.19047
C          9.03879       -3.20681        4.13931
C          8.85727       -4.72294        3.96599
C          9.43608       -5.30698        2.64897
C         10.93036       -5.15372        2.56722
C         11.72196       -5.84787        3.50453
C         13.08746       -5.67999        3.56136
N         13.70402       -4.84020        2.69133
C         12.98471       -4.18876        1.75014
C         11.60166       -4.31760        1.64439
C         10.91536       -3.48747        0.59249
C         10.92882       -1.99359        0.96134
O         11.77075       -1.48900        1.67933
O          9.90718       -1.36655        0.37189
C          9.74948        0.07093        0.64950
C         10.41924        0.92617       -0.41497
C          9.85780        0.73243       -1.82586
C         15.17753       -4.69136        2.73938
C         15.89170       -5.65963        1.78876
O         15.50633       -7.03070        1.97752
C         16.04544       -7.65924        3.08706
O         16.69691       -7.05622        3.91234
C         15.70786       -9.12747        3.09230
C         15.76347       -9.76396        4.48564
C         15.48660      -11.26789        4.44797
H          1.56936       -0.00404        1.23655
H          1.79395       -0.49267        2.92646
H          1.75632       -1.71964        1.64628
H          3.93190        0.45513        1.94393
H          3.89575       -0.76871        0.67781
H          4.08256       -2.57626        2.42878
H          4.13443       -1.34604        3.68763
H          6.24799       -0.40515        2.67615
H          6.19435       -1.64488        1.42321
H          6.33622       -3.42630        3.21120
H          6.45339       -2.17394        4.44390
H          8.54115       -1.28095        3.32397
H          8.43805       -2.56790        2.13942
H          8.77192       -2.95305        5.17758
H         10.10673       -2.94791        4.03892
H          7.79063       -4.98827        3.99976
H          9.31971       -5.24281        4.81948
H          8.93966       -4.84853        1.78597
H          9.19876       -6.38203        2.61156
H         11.25459       -6.51949        4.22409
H         13.72612       -6.17745        4.28851
H         13.55155       -3.53603        1.08865
H          9.88736       -3.80972        0.40447
H         11.44655       -3.57981       -0.36849
H         10.15965        0.26922        1.64731
H          8.65971        0.20626        0.66021
H         11.50422        0.73957       -0.39517
H         10.28821        1.97335       -0.09681
H          9.98935       -0.30017       -2.17717
H         10.36380        1.39358       -2.54076
H          8.78319        0.96288       -1.86340
H         15.49539       -4.86433        3.77284
H         15.42267       -3.65718        2.46512
H         16.97377       -5.53774        1.94282
H         15.64360       -5.44103        0.74191
H         16.43602       -9.61512        2.41882
H         14.72856       -9.26920        2.61020
H         15.03279       -9.26351        5.14183
H         16.74987       -9.56809        4.92951
H         14.49440      -11.48906        4.02771
H         15.52241      -11.69765        5.45717
H         16.23154      -11.79710        3.83631
