73

C          0.73355        0.28221        0.68761
C          2.24957        0.10494        0.56939
C          2.80666        0.52764       -0.79468
C          4.32976        0.40432       -0.90432
C          4.88167        0.82126       -2.27132
C          6.41037        0.76581       -2.36360
C          6.95085        1.18843       -3.73302
C          8.48054        1.18043       -3.82871
C          8.99292        1.61299       -5.20573
C         10.52076        1.62173       -5.33153
C         10.98497        2.02091       -6.73898
C         12.50245        2.04349       -6.87487
O         12.95043        2.15254       -8.25424
C         12.68600        3.38052       -8.85677
N         13.47947        3.29180      -10.14137
C         13.17833        4.33851      -11.31445
C         12.37569        3.55262      -12.40416
C         13.22250        2.51063      -13.15417
C         11.07414        2.89998      -11.89963
C         12.34459        5.51515      -10.77770
O         13.07484        6.19656       -9.76347
C         14.50767        4.88166      -11.84750
C         14.96019        3.04150       -9.83469
O         15.52440        2.15012      -10.40519
O         15.37775        3.91164       -8.94886
C         16.78627        3.75134       -8.49665
C         16.88153        2.72547       -7.38836
H          0.36676       -0.03319        1.67417
H          0.20033       -0.31127       -0.07007
H          0.44279        1.33407        0.54678
H          2.51467       -0.94929        0.75827
H          2.75088        0.68728        1.36132
H          2.51183        1.57254       -0.99873
H          2.33074       -0.07824       -1.58624
H          4.63048       -0.63655       -0.69065
H          4.80092        1.02073       -0.11835
H          4.54263        1.84673       -2.50251
H          4.44412        0.17683       -3.05421
H          6.75637       -0.25687       -2.13223
H          6.84520        1.41499       -1.58331
H          6.57874        2.20023       -3.97329
H          6.53475        0.52314       -4.51013
H          8.85894        0.16963       -3.59697
H          8.89986        1.84612       -3.05419
H          8.60477        2.62061       -5.43741
H          8.57218        0.94300       -5.97599
H         10.91763        0.62169       -5.08720
H         10.94911        2.31272       -4.58532
H         10.56198        3.00962       -6.98745
H         10.58186        1.30502       -7.47469
H         12.94245        1.09634       -6.53634
H         12.95586        2.86326       -6.28869
H         13.04735        4.24782       -8.28566
H         11.62845        3.50946       -9.13307
H         13.21227        2.37760      -10.54151
H         12.09257        4.33243      -13.13085
H         13.61825        1.72222      -12.49327
H         14.07372        2.95433      -13.68217
H         12.59765        2.00709      -13.90223
H         11.25802        2.04944      -11.22164
H         10.52740        2.48472      -12.75516
H         10.39564        3.59868      -11.39497
H         11.36150        5.18497      -10.40540
H         12.15899        6.16414      -11.65129
H         12.62996        7.03492       -9.56473
H         15.20459        4.09196      -12.14609
H         14.98479        5.53788      -11.11168
H         14.29415        5.48355      -12.74093
H         17.04715        4.76147       -8.16336
H         17.38413        3.48015       -9.37570
H         16.25330        3.00204       -6.53183
H         17.92377        2.68140       -7.04248
H         16.60121        1.72375       -7.73687
