43

O          5.37791       -0.70196       -0.95234
C          4.74710       -0.72852        0.33770
C          4.68680       -2.17107        0.78215
O          6.04890       -2.65120        0.91955
C          6.21103       -4.01893        0.78677
O          6.07299       -4.48557       -0.59330
C          6.72985       -3.73235       -1.54837
N          8.23038       -3.80378       -1.39641
C          9.06788       -4.86490       -1.48280
N         10.30648       -4.46203       -1.13796
N         10.25151       -3.17850       -0.83829
N          9.00996       -2.77057       -0.96949
C          8.63990       -1.34861       -0.91499
C          8.89876       -0.67004       -2.28441
C          8.56714        0.77928       -2.26796
C          9.43931        1.79116       -2.15721
F         10.74514        1.60469       -2.02345
F          9.10967        3.06469       -2.17390
F          7.24694        1.09585       -2.39777
C          8.71556       -6.25987       -1.83484
C          8.89142       -7.20245       -0.60019
O          8.09721       -6.73377        0.48918
C          8.59329       -8.64985       -0.96464
H          5.39834        0.21012       -1.28242
H          3.71992       -0.32980        0.29101
H          5.32092       -0.13159        1.06749
H          4.14917       -2.77405        0.03374
H          4.17244       -2.25259        1.75309
H          5.45359       -4.61188        1.32187
H          7.22025       -4.26570        1.14741
H          6.46730       -2.66362       -1.53334
H          6.49996       -4.16695       -2.52868
H          9.28534       -0.92366       -0.13721
H          7.59087       -1.26967       -0.59873
H          8.29346       -1.15684       -3.06601
H          9.95655       -0.79649       -2.55288
H          9.39994       -6.58489       -2.63316
H          7.68668       -6.32568       -2.21368
H          9.93281       -7.10581       -0.25717
H          7.20158       -7.09780        0.39131
H          7.55428       -8.76842       -1.31157
H          8.74120       -9.28960       -0.08562
H          9.25750       -9.00810       -1.76268
