57

C          1.89135        0.11084        0.32592
C          3.37414        0.04445        0.70140
C          3.65857        0.68411        2.06703
C          5.13975        0.61605        2.45027
S          5.29640        1.38462        4.10600
C          6.97315        1.18782        4.48503
N          7.52820        1.50902        5.62587
N          8.86728        1.15764        5.51367
C          9.03627        0.66379        4.32747
O          7.87473        0.64161        3.59209
C         10.32226        0.11864        3.77332
C         11.04375       -0.60958        4.93799
C         10.49629       -1.99792        4.82695
N         10.07902       -2.19753        3.60332
C         10.10330       -1.00437        2.71830
C         11.19909       -1.15004        1.64416
C         10.95087       -0.44634        0.29079
C         10.81688        1.08637        0.38430
F         11.89939        1.63647        1.01083
F         10.70779        1.65352       -0.82302
F          9.71170        1.43439        1.10921
O         11.95024       -0.80393       -0.63811
C         10.26555       -2.95495        5.93556
C          8.98075       -2.37409        6.54247
C          9.02843       -1.59704        7.70832
C          7.87344       -0.99054        8.19293
C          6.64637       -1.11281        7.51898
C          6.60622       -1.90925        6.36248
C          7.75610       -2.52220        5.87363
C          5.42959       -0.37075        7.98939
H          1.70873       -0.35307       -0.65204
H          1.53915        1.15092        0.27151
H          1.26762       -0.41313        1.06465
H          3.97680        0.54884       -0.07180
H          3.70645       -1.00732        0.71489
H          3.05633        0.17986        2.84093
H          3.33204        1.73689        2.05535
H          5.76629        1.17028        1.73840
H          5.48959       -0.42434        2.50634
H         10.93172        0.93110        3.35780
H         10.84410       -0.13945        5.90721
H         12.13747       -0.65886        4.79692
H          9.70523       -3.09256        3.28805
H          9.11315       -0.92314        2.24830
H         11.30312       -2.21316        1.38266
H         12.17298       -0.83435        2.05046
H         10.00158       -0.80220       -0.14214
H         12.79790       -0.40003       -0.38290
H         11.08723       -2.92744        6.66123
H         10.13144       -3.98497        5.57745
H          9.97167       -1.46795        8.24251
H          7.92815       -0.39032        9.10221
H          5.66070       -2.03825        5.83319
H          7.68706       -3.13118        4.96830
H          5.34047       -0.39112        9.08342
H          4.50989       -0.78055        7.55482
H          5.50474        0.68571        7.68653
