79

C          1.12339       -0.67279       -0.06177
C          2.47070       -0.02652       -0.39449
C          3.22322        0.44121        0.86199
C          4.54330        1.08633        0.50216
O          5.19326        1.51863        1.76855
C          6.34408        2.14159        1.63735
O          6.97138        2.41360        0.64872
N          6.85296        2.52998        2.98269
C          6.16510        2.23420        4.14376
C          6.67211        2.63258        5.34754
C          7.89696        3.35104        5.43111
C          8.59527        3.64026        4.19905
C          8.02295        3.20143        3.00531
C          9.83912        4.36191        4.22195
C         10.32072        4.74865        5.45559
C          9.63705        4.48780        6.67455
C          8.43610        3.78990        6.65336
C         10.20790        5.01828        7.96065
C         10.00683        6.54814        8.02719
C         10.65430        7.26020        9.22067
C          9.76912        7.50222       10.50465
C          9.18175        6.29653       11.33900
C         10.10431        5.22511       12.04897
C         11.19847        5.63285       13.11700
C         10.82000        6.39659       14.45006
C          9.81922        5.77443       15.50686
C         10.14387        4.36540       16.12956
F         11.41161        4.31146       16.56990
F          9.31302        4.16046       17.16549
F          9.94958        3.38386       15.22899
F          9.79157        6.66360       16.53180
F          8.57917        5.71161       14.95732
F         12.00194        6.60486       15.08352
F         10.30094        7.60414       14.10835
F         11.80735        4.46943       13.47022
F         12.11280        6.41143       12.48561
F          9.25364        4.34192       12.62964
F         10.78457        4.55940       11.07007
F          8.37415        6.83629       12.27875
F          8.39095        5.56813       10.48159
F         10.46070        8.29979       11.35015
F          8.66462        8.18928       10.07690
F         11.82048        6.65074        9.59449
F         10.98351        8.53156        8.81457
C         10.59829        4.68195        2.94496
C         11.72084        5.68178        3.11774
C         13.04207        5.22245        3.19797
C         14.10381        6.10796        3.39162
C         13.84350        7.47388        3.50632
C         12.53017        7.94029        3.41997
C         11.45172        7.06598        3.22489
C         10.04859        7.61345        3.12804
H          0.60811       -0.99670       -0.97493
H          0.46042        0.03036        0.46255
H          1.24988       -1.55627        0.58020
H          2.31308        0.83204       -1.06764
H          3.09723       -0.74225       -0.95143
H          3.40366       -0.41634        1.52967
H          2.60435        1.16227        1.41964
H          4.42620        1.98336       -0.12143
H          5.23754        0.39580        0.00356
H          5.23625        1.68758        4.02006
H          6.11879        2.39204        6.25503
H          8.46188        3.36552        2.02271
H         11.26661        5.29251        5.49202
H          7.90316        3.58188        7.58268
H         11.28407        4.79591        8.00521
H          9.73235        4.52003        8.81114
H          8.93882        6.80335        8.00380
H         10.46400        7.01735        7.14363
H          9.88741        5.04693        2.18581
H         11.01290        3.74236        2.54182
H         13.24125        4.15223        3.10507
H         15.12577        5.73268        3.44759
H         14.66154        8.17906        3.65594
H         12.33298        9.01118        3.49931
H         10.04863        8.70509        3.22902
H          9.38709        7.21054        3.91100
H          9.58269        7.37468        2.15901
