47

C          1.19780        1.39777       -1.60250
C          2.72398        1.28038       -1.59329
C          3.22359       -0.13056       -1.92599
C          4.75172       -0.23579       -1.97401
C          5.25340       -1.65683       -2.25821
C          6.78157       -1.72495       -2.37324
C          7.26747       -3.16222       -2.59769
N          8.73089       -3.21647       -2.80139
C          9.60657       -3.48683       -1.87428
S         11.25232       -3.32243       -2.27167
C         10.79519       -2.55005       -3.89168
C          9.32844       -2.96570       -4.12663
C          9.19728       -4.26336       -4.97827
O          8.64457       -5.26099       -4.57378
O          9.76440       -4.05861       -6.16458
C          9.75422       -5.19438       -7.11741
C         10.97020       -6.07395       -6.91531
C         10.98035       -1.01207       -3.87572
C         12.44745       -0.51200       -3.87733
F         13.07579       -0.95947       -2.74936
F         13.08113       -1.04216       -4.96157
F         10.38868       -0.51906       -5.01035
F         10.33125       -0.45885       -2.80408
H          0.87484        2.42090       -1.36908
H          0.73946        0.72777       -0.86026
H          0.78241        1.13495       -2.58641
H          3.11292        1.57796       -0.60464
H          3.15312        1.99658       -2.31476
H          2.80582       -0.44722       -2.89766
H          2.82919       -0.84234       -1.17992
H          5.17499        0.11421       -1.01654
H          5.13992        0.44994       -2.74717
H          4.79914       -2.02978       -3.19205
H          4.91127       -2.33481       -1.45778
H          7.25243       -1.32718       -1.45960
H          7.11695       -1.08015       -3.20239
H          6.80640       -3.62036       -3.48339
H          7.03456       -3.80519       -1.73816
H          9.29667       -3.79943       -0.87559
H         11.44512       -2.96363       -4.67228
H          8.78280       -2.15916       -4.63612
H          9.75346       -4.69816       -8.09412
H          8.81375       -5.73984       -6.97439
H         11.90027       -5.50077       -7.02243
H         10.97192       -6.86080       -7.68224
H         10.95496       -6.56529       -5.93392
H         12.49292        0.58772       -3.91604
