53

C          9.14960        4.98899       -1.42975
C          7.72081        4.91605       -0.88636
C          7.63063        4.12409        0.42224
C          6.22951        4.06790        1.04174
N          5.23047        3.36825        0.20274
C          4.27863        4.07650       -0.42006
O          4.15531        5.31680       -0.34674
C          3.22671        3.33841       -1.29017
N          2.35840        4.42902       -1.84169
C          2.54312        4.66105       -3.34997
C          2.11253        3.51660       -4.22006
C          0.77612        3.37972       -4.62977
C          0.38663        2.31098       -5.43660
C          1.31469        1.35038       -5.87051
C          2.65512        1.50467       -5.47737
C          3.04974        2.57112       -4.67153
C          0.89953        0.21182       -6.76205
C          0.91613        4.35237       -1.42193
C          0.73198        4.54100        0.09282
C         -0.71350        4.69663        0.42275
C         -1.45781        3.86706        1.16396
F         -0.97611        2.75099        1.70568
F         -2.73009        4.05328        1.44890
F         -1.30451        5.80711       -0.09105
C          5.38269        1.92070        0.06747
H          9.19082        5.55660       -2.36858
H          9.55509        3.98592       -1.62770
H          9.82115        5.48280       -0.71316
H          7.06474        4.45632       -1.64587
H          7.32929        5.93276       -0.72184
H          8.28584        4.58682        1.17770
H          8.02500        3.10457        0.27533
H          5.84432        5.07949        1.21580
H          6.25961        3.53830        2.00628
H          2.62101        2.64400       -0.69597
H          3.67312        2.77307       -2.11615
H          2.82308        5.26140       -1.34687
H          3.61146        4.88438       -3.47391
H          1.97492        5.57630       -3.56472
H          0.03343        4.12571       -4.33854
H         -0.65593        2.22626       -5.74838
H          3.40204        0.78701       -5.82223
H          4.10738        2.68828       -4.41946
H         -0.19143        0.11196       -6.80901
H          1.32047       -0.74126       -6.41324
H          1.26624        0.36819       -7.78790
H          0.50665        3.39440       -1.76719
H          0.39826        5.15997       -1.95592
H          1.27254        5.44381        0.42540
H          1.12986        3.69038        0.66225
H          5.58734        1.48864        1.05652
H          6.21983        1.66928       -0.60046
H          4.47144        1.45547       -0.32173
