50

C          1.67221       -0.74121       -1.39722
C          3.04655       -0.59720       -0.73575
C          3.05937       -0.31533        0.77846
C          2.44016       -1.46782        1.61834
C          0.96000       -1.53156        1.57697
N          0.12123       -0.48419        1.69853
N         -1.11784       -0.93914        1.64475
N         -1.07941       -2.23710        1.49428
N          0.21883       -2.65848        1.44254
C          0.60324       -4.03642        1.35233
C          0.92802       -4.59379        0.11459
C          1.32935       -5.92700        0.05619
C          1.39679       -6.67427        1.23643
C          1.06758       -6.11924        2.47530
C          0.66040       -4.78056        2.55331
O          0.30004       -4.11443        3.67567
C          0.35361       -4.81106        4.93770
C         -2.24615       -3.11786        1.39765
C         -3.53386       -2.35070        1.70912
O         -4.53228       -3.34836        1.65827
C         -5.83425       -2.85172        1.92630
C         -6.79829       -4.03522        1.89561
F         -6.79970       -4.65165        0.69186
F         -6.48316       -4.96105        2.83244
F         -8.05258       -3.59194        2.14605
C          4.48914       -0.05851        1.27058
H          1.77413       -0.78813       -2.48923
H          1.01565        0.10891       -1.16254
H          1.14966       -1.66185       -1.09560
H          3.57903        0.23589       -1.22004
H          3.65678       -1.49458       -0.93851
H          2.45784        0.58866        0.97135
H          2.71016       -1.31379        2.67742
H          2.85868       -2.44220        1.32480
H          0.87055       -3.97950       -0.78453
H          1.58866       -6.37727       -0.90048
H          1.71530       -7.71618        1.19745
H          1.13041       -6.72784        3.37546
H          0.01316       -4.08441        5.68090
H          1.38212       -5.12280        5.16838
H         -0.31829       -5.68116        4.93430
H         -2.11281       -3.93570        2.11868
H         -2.28007       -3.54507        0.38506
H         -3.71169       -1.55209        0.96641
H         -3.47464       -1.88103        2.70874
H         -6.16000       -2.12141        1.16506
H         -5.89636       -2.38669        2.92595
H          5.12614       -0.94626        1.13838
H          4.50792        0.21710        2.33413
H          4.94756        0.76370        0.70606
