101

C          0.61144        7.08795        3.49095
C          2.14142        7.09958        3.43796
C          2.70233        7.14287        2.01151
C          4.23351        7.15545        1.95346
C          4.79831        7.20287        0.52940
C          6.32976        7.22415        0.47690
C          6.89785        7.28529       -0.94532
C          8.42913        7.32060       -0.99241
C          9.00242        7.38814       -2.41229
C         10.53352        7.43859       -2.44798
C         11.11859        7.49364       -3.86364
C         12.65014        7.54957       -3.87909
C         13.25026        7.53884       -5.29005
C         14.78268        7.59580       -5.27822
C         15.36871        7.48807       -6.68862
N         16.84441        7.54951       -6.69248
C         17.64256        6.47100       -6.67584
N         18.91719        6.88773       -6.60438
C         18.93252        8.26489       -6.58059
C         17.63132        8.69791       -6.62983
C         17.10164       10.08427       -6.52055
C         17.34925       10.67620       -5.11804
O         18.18233       10.25186       -4.34479
O         16.54124       11.72526       -4.92277
C         16.76586       12.50282       -3.69219
C         17.84854       13.54952       -3.90488
C         18.05629       14.42832       -2.66466
C         19.14106       15.49274       -2.87225
C         19.36656       16.37240       -1.64097
C         20.09059        6.00500       -6.56883
O         20.03952        5.20474       -7.70888
C         21.15671        4.28342       -7.77276
C         21.03324        3.44206       -9.02922
C         22.21095        2.46859       -9.17312
C         22.12904        1.59417      -10.42894
C         23.31691        0.63692      -10.57042
C         23.25902       -0.23929      -11.82661
C         24.45581       -1.18472      -11.95638
H          0.24422        7.05702        4.52616
H          0.19949        6.21254        2.96690
H          0.18773        7.98538        3.01575
H          2.53480        6.20758        3.95457
H          2.52305        7.96692        4.00314
H          2.30942        8.03574        1.49341
H          2.32146        6.27498        1.44437
H          4.62491        6.26187        2.47119
H          4.61178        8.02246        2.52354
H          4.40381        8.09434        0.01052
H          4.42533        6.33369       -0.04064
H          6.72496        6.32927        0.98939
H          6.70132        8.08931        1.05413
H          6.49707        8.17653       -1.45967
H          6.53435        6.41639       -1.52180
H          8.83073        6.42865       -0.47983
H          8.79064        8.18834       -0.41274
H          8.59514        8.27469       -2.92934
H          8.65183        6.51477       -2.98992
H         10.93914        6.55583       -1.92299
H         10.88225        8.31587       -1.87509
H         10.71356        8.37160       -4.39638
H         10.77939        6.61079       -4.43336
H         13.05134        6.69269       -3.31046
H         12.98926        8.45371       -3.34424
H         12.85370        8.39056       -5.86900
H         12.91939        6.62875       -5.81980
H         15.18618        6.77463       -4.66346
H         15.11920        8.53184       -4.80400
H         15.00315        8.29041       -7.34394
H         15.08950        6.53735       -7.16247
H         17.32132        5.43877       -6.74677
H         19.85249        8.83044       -6.49993
H         16.03551       10.14979       -6.76755
H         17.61909       10.74209       -7.23639
H         17.02106       11.80360       -2.88496
H         15.78779       12.95771       -3.49235
H         17.57292       14.17780       -4.76713
H         18.79451       13.04528       -4.15877
H         18.32734       13.79356       -1.80353
H         17.10692       14.92217       -2.39477
H         18.86547       16.12452       -3.73329
H         20.08562       14.99588       -3.15085
H         18.44713       16.90333       -1.35381
H         20.14064       17.12860       -1.82803
H         19.68873       15.77509       -0.77534
H         20.05583        5.40919       -5.63605
H         20.98057        6.66017       -6.53703
H         21.15314        3.64912       -6.86628
H         22.09791        4.86423       -7.77745
H         20.98591        4.11044       -9.90361
H         20.08248        2.88597       -8.99983
H         22.26306        1.81915       -8.28204
H         23.15635        3.03800       -9.18984
H         22.07078        2.24117      -11.32149
H         21.18936        1.01505      -10.41185
H         23.37202       -0.01079       -9.67757
H         24.25509        1.21955      -10.57737
H         23.20173        0.40835      -12.71784
H         22.32417       -0.82492      -11.81851
H         25.40283       -0.62671      -12.00262
H         24.38763       -1.79702      -12.86563
H         24.51877       -1.87064      -11.09854
