72

C          2.88609        1.34329      -12.42141
C          4.41277        1.42672      -12.36632
C          4.92723        2.41660      -11.31637
C          6.45478        2.50253      -11.25998
C          6.98370        3.46637      -10.19392
C          8.51281        3.53506      -10.15517
C          9.06781        4.47040       -9.07749
C         10.59872        4.51281       -9.07049
C         11.20457        5.43780       -8.01958
O         10.84025        5.13047       -6.65728
C         11.30171        3.89659       -6.14305
C         12.80079        3.90919       -5.79249
C         13.38788        2.57136       -5.25776
C         12.55691        1.86376       -4.17303
C         13.09009        0.47671       -3.81500
O         12.30848       -0.01646       -2.75080
C         12.71702       -1.32093       -2.31013
C         11.80248       -1.77450       -1.18453
C         12.20594       -3.14077       -0.61874
C         11.27082       -3.63146        0.49184
C         11.68679       -4.98529        1.07029
C         14.76586        3.02403       -4.75992
N         14.51014        4.40166       -4.16420
C         13.22889        4.97227       -4.75961
N         12.20617        5.16678       -3.66859
O         12.96269        5.27565       -2.41398
O         11.70839        6.45460       -3.94742
H          2.54920        0.62141      -13.17780
H          2.44279        2.31861      -12.67096
H          2.46977        1.02914      -11.45264
H          4.80358        1.71426      -13.35692
H          4.83023        0.42764      -12.15474
H          4.53952        2.12762      -10.32340
H          4.51115        3.41809      -11.52410
H          6.83881        2.80825      -12.24901
H          6.86819        1.49532      -11.07396
H          6.60514        3.15967       -9.20292
H          6.57613        4.47602      -10.37559
H          8.88745        3.85521      -11.14310
H          8.91612        2.51894       -9.99550
H          8.69946        4.15442       -8.08752
H          8.67792        5.49104       -9.23337
H         10.96677        4.86498      -10.04912
H         11.00133        3.49015       -8.96442
H         10.83868        6.46504       -8.15865
H         12.30654        5.46675       -8.12641
H         11.12092        3.05836       -6.83946
H         10.70519        3.70996       -5.24036
H         13.35681        4.15368       -6.71393
H         13.52891        1.88189       -6.10397
H         11.51947        1.74844       -4.51521
H         12.50532        2.46489       -3.25054
H         14.16147        0.51718       -3.51799
H         13.03196       -0.19320       -4.69836
H         13.77013       -1.27890       -1.96650
H         12.67266       -2.02899       -3.16044
H         10.76751       -1.81326       -1.56035
H         11.82065       -1.01745       -0.38384
H         13.23713       -3.08840       -0.22779
H         12.22520       -3.88793       -1.43114
H         10.24389       -3.69723        0.09549
H         11.23848       -2.87858        1.29712
H         11.70198       -5.76351        0.29311
H         10.99464       -5.31462        1.85672
H         12.69335       -4.93783        1.51155
H         15.47921        3.15432       -5.58272
H         15.21584        2.38937       -3.98810
H         15.30045        5.03802       -4.31017
H         14.31668        4.38713       -3.13558
H         13.44411        5.95601       -5.19551
H         12.34043        4.90949       -1.75969
H         10.74813        6.37449       -3.79545
