35

N          2.87518        3.83293        1.38050
C          2.44963        2.61163        2.05407
C          2.85761        1.36400        1.24708
N          4.31720        1.29141        1.06374
C          5.11349        1.79048        0.09006
N          6.39943        1.59590        0.44780
N          6.41444        1.00094        1.62411
N          5.17183        0.82675        2.01207
C          4.80101        0.10222        3.23112
C          4.56302       -1.39279        2.97117
C          3.89011       -2.06792        4.15755
Br         2.07415       -1.36090        4.45088
C          4.69449        2.39290       -1.19988
C          4.49060        1.32641       -2.29722
O          3.45135        0.46519       -1.79618
C          4.12723        1.96653       -3.63094
H          3.08793        4.57243        2.04709
H          2.15039        4.19283        0.76014
H          1.36069        2.52743        2.21784
H          2.91334        2.57305        3.05045
H          2.44149        1.36844        0.23241
H          2.52204        0.44116        1.73860
H          3.90315        0.57420        3.65176
H          5.63722        0.27069        3.92034
H          5.52882       -1.88677        2.78091
H          3.94589       -1.53154        2.07121
H          4.42432       -1.91338        5.10165
H          3.76108       -3.13989        3.98355
H          5.49504        3.07993       -1.50265
H          3.77586        2.97761       -1.06705
H          5.42804        0.74975       -2.40277
H          3.23577       -0.18912       -2.47960
H          3.21175        2.56796       -3.54518
H          3.96152        1.19177       -4.39283
H          4.94139        2.60960       -3.99239
