82

C         10.46975      -14.20404       12.72278
C         10.03351      -13.57837       11.39577
C         10.63563      -12.18976       11.15475
C         10.23683      -11.56782        9.81283
C         10.85328      -10.18583        9.57457
C         10.48992       -9.57485        8.21753
C         11.15636       -8.21741        7.96909
C         10.81213       -7.61966        6.59929
C         11.57090       -6.33363        6.33416
O         11.18644       -5.83692        5.02856
C         11.85356       -4.67478        4.64019
C         13.31186       -4.91105        4.27423
N         14.20480       -3.98707        4.67043
N         15.50703       -3.95900        4.40619
C         15.95164       -4.96024        3.66482
C         15.14986       -6.02227        3.17028
C         13.79137       -5.99679        3.52329
C         12.86040       -7.14775        3.18494
O         12.88926       -8.16503        3.84652
O         12.10985       -6.86536        2.12967
C         11.13002       -7.89312        1.70864
C          9.77904       -7.63014        2.35028
C          8.71958       -8.62956        1.86445
C          7.34795       -8.37711        2.49477
C         15.74202       -7.05869        2.26582
C         17.13115       -7.60794        2.66972
C         17.18426       -8.36719        4.00872
C         16.10583       -9.44830        4.19512
C         16.02557      -10.47343        3.05139
C         14.65289      -11.14692        2.98032
O         14.39581      -11.68921        1.65574
C         13.99033      -10.79227        0.72176
O         13.83080       -9.59784        0.94680
C         13.77141      -11.46039       -0.58234
C         13.36693      -10.76757       -1.65306
H         10.01962      -15.19554       12.86841
H         10.17386      -13.57750       13.57726
H         11.56229      -14.32639       12.76682
H          8.93314      -13.50717       11.36456
H         10.31584      -14.24485       10.56316
H         11.73686      -12.25756       11.21032
H         10.33529      -11.51471       11.97556
H          9.13675      -11.49349        9.75487
H         10.53640      -12.24579        8.99412
H         11.95242      -10.26099        9.65493
H         10.53894       -9.50039       10.38093
H          9.39409       -9.46549        8.14320
H         10.78046      -10.27254        7.41267
H         12.25137       -8.33586        8.05159
H         10.86461       -7.51309        8.76713
H          9.73109       -7.41859        6.53079
H         11.06031       -8.33888        5.80359
H         12.66150       -6.52265        6.35391
H         11.34094       -5.55925        7.08991
H         11.79954       -3.87771        5.41151
H         11.34339       -4.29915        3.73699
H         13.88684       -3.19627        5.23728
H         17.01910       -4.91323        3.44800
H         11.54441       -8.87479        1.96437
H         11.10513       -7.78580        0.61758
H          9.45775       -6.60274        2.11261
H          9.87448       -7.68742        3.44491
H          9.05041       -9.65478        2.09784
H          8.63812       -8.57624        0.76633
H          7.38819       -8.47061        3.58981
H          6.60477       -9.09667        2.12736
H          6.97807       -7.36848        2.25923
H         15.84747       -6.56917        1.27886
H         15.02681       -7.87707        2.10401
H         17.87865       -6.79941        2.68351
H         17.44755       -8.26652        1.84878
H         17.10509       -7.65254        4.84581
H         18.18817       -8.81176        4.09533
H         15.12327       -8.96301        4.30134
H         16.28430       -9.96028        5.15281
H         16.82262      -11.22644        3.13773
H         16.18371       -9.96925        2.08819
H         13.85909      -10.42663        3.22026
H         14.57338      -12.01266        3.64888
H         13.95698      -12.53432       -0.61958
H         13.19207       -9.69261       -1.58417
H         13.20313      -11.25070       -2.61544
