63

C          5.06740       -2.94877       -3.06203
C          5.03405       -3.19984       -1.56703
O          5.21176       -1.95794       -0.79413
P          3.98256       -0.98778       -0.49639
O          2.65596       -1.62731       -0.27160
C          4.57780       -0.10362        0.98109
C          3.54256        0.97667        1.42104
C          3.29596        0.94576        2.90359
C          4.27272        1.42717        3.77532
C          4.06467        1.37989        5.14489
N          2.91488        0.86214        5.61152
N          1.94350        0.41008        4.83070
C          2.10078        0.43512        3.50256
C          0.95038       -0.17797        2.74382
C          1.09564       -1.73153        2.81539
O          2.35595       -2.19185        2.38717
C         -0.42378        0.26293        3.26898
C          2.59903        0.84532        7.05100
C          1.71309        2.05568        7.43347
O          1.51487        2.03798        8.81519
Si         0.04810        1.59995        9.56435
C         -1.26978        2.84548        9.08111
C         -0.43727       -0.12349        8.98338
C          0.44879        1.64806       11.38551
O          3.86582        0.07070       -1.68876
C          5.02105        0.67900       -2.34693
C          5.10639        2.15604       -2.01286
H          5.02035       -3.91184       -3.58928
H          5.99631       -2.44505       -3.36100
H          4.21068       -2.34594       -3.39199
H          5.86989       -3.82993       -1.24075
H          4.09152       -3.66607       -1.24850
H          5.57025        0.33084        0.80125
H          4.68916       -0.87902        1.75176
H          2.60025        0.83932        0.87965
H          3.91826        1.97272        1.14713
H          5.20855        1.84111        3.39971
H          4.78097        1.73323        5.88449
H          1.03545        0.10213        1.68508
H          0.27079       -2.16865        2.22563
H          0.96519       -2.04655        3.86336
H          2.39536       -2.11738        1.40013
H         -0.57729       -0.05408        4.30825
H         -1.21216       -0.18912        2.65407
H         -0.54411        1.35330        3.22042
H          3.53964        0.87462        7.61367
H          2.07392       -0.09433        7.25259
H          0.77542        2.00569        6.84887
H          2.23501        2.98710        7.14739
H         -1.46768        2.84612        7.99970
H         -0.97710        3.86261        9.37587
H         -2.21813        2.60930        9.58479
H         -0.59487       -0.16572        7.89535
H         -1.38301       -0.42751        9.45509
H          0.32117       -0.87084        9.25592
H          0.78963        2.64772       11.68682
H          1.23573        0.92562       11.64092
H         -0.44171        1.40243       11.98141
H          4.85405        0.52343       -3.42088
H          5.93467        0.13581       -2.06450
H          4.16632        2.66726       -2.25676
H          5.91047        2.62138       -2.59968
H          5.33191        2.32212       -0.95014
