70

C          1.10628      -12.23621        1.24608
C          2.60549      -12.31076        0.94780
C          3.13031      -11.10648        0.15806
C          4.63838      -11.15821       -0.10414
C          5.17674       -9.93882       -0.85864
C          6.69466       -9.96876       -1.06147
C          7.24499       -8.72865       -1.77240
C          8.77178       -8.72795       -1.89917
C          9.33412       -7.43915       -2.50589
C         10.86660       -7.41283       -2.56113
C         11.38565       -6.06196       -3.06690
C         12.88620       -5.90435       -3.21533
C         13.71934       -6.87852       -2.68671
C         15.11958       -6.81805       -2.79845
C         15.72674       -5.78301       -3.47418
C         14.95244       -4.75011       -4.05070
C         13.50400       -4.78661       -3.89480
C         12.75960       -3.70431       -4.45079
C         11.31068       -3.44740       -4.37386
C         10.57386       -3.04684       -5.42115
N         13.43938       -2.74531       -5.11568
C         14.78626       -2.69420       -5.30042
C         15.58496       -3.68067       -4.77826
C         17.09515       -3.58847       -4.90045
C         17.59148       -2.87688       -6.16699
O         17.11582       -1.85831       -6.63833
O         18.68143       -3.50431       -6.63460
C         19.36756       -2.88354       -7.77786
C         18.81967       -3.40505       -9.09262
C         17.69395       -2.84829       -3.67292
H          0.76381      -13.11254        1.81322
H          0.51507      -12.18856        0.31945
H          0.86199      -11.34176        1.83860
H          2.82619      -13.23557        0.38829
H          3.16554      -12.39166        1.89499
H          2.88840      -10.17902        0.70719
H          2.59093      -11.03566       -0.80311
H          4.88131      -12.07540       -0.66901
H          5.16948      -11.24990        0.85987
H          4.90438       -9.02192       -0.30635
H          4.67477       -9.86017       -1.83892
H          6.97331      -10.87356       -1.62960
H          7.18752      -10.06774       -0.07806
H          6.92830       -7.82631       -1.21983
H          6.79016       -8.64400       -2.77487
H          9.09402       -9.59323       -2.50399
H          9.21517       -8.87649       -0.89885
H          8.97857       -6.57851       -1.91170
H          8.92525       -7.29642       -3.52150
H         11.22869       -8.22690       -3.21100
H         11.25644       -7.61708       -1.55036
H         11.01647       -5.28862       -2.37041
H         10.90298       -5.84503       -4.03291
H         13.27693       -7.72861       -2.17153
H         15.72644       -7.60912       -2.35685
H         16.81005       -5.76846       -3.56463
H         10.84442       -3.55553       -3.39588
H         10.97338       -2.98565       -6.43616
H          9.51823       -2.80877       -5.29774
H         12.87976       -1.96826       -5.46848
H         15.18320       -1.84672       -5.85588
H         17.51714       -4.59978       -4.93985
H         20.41648       -3.16555       -7.62958
H         19.26054       -1.79498       -7.69087
H         18.89309       -4.49897       -9.14633
H         19.40755       -2.98495       -9.92036
H         17.77355       -3.10681       -9.23651
H         17.34661       -1.80744       -3.64708
H         18.78962       -2.85193       -3.72694
H         17.39075       -3.33847       -2.73911
