97

C          0.63845       -8.37012       -6.15751
C          2.16939       -8.36775       -6.14679
C          2.76506       -8.32576       -4.73501
C          4.29689       -8.32429       -4.70838
C          4.88360       -8.29390       -3.29316
C          6.41528       -8.29295       -3.25884
C          6.99557       -8.27082       -1.84072
C          8.52715       -8.26975       -1.80330
C          9.10653       -8.24389       -0.38481
C         10.63821       -8.24495       -0.35130
C         11.22292       -8.20727        1.06441
C         12.75580       -8.22295        1.08717
C         13.33034       -8.14579        2.50611
C         14.87112       -8.29928        2.64762
C         15.65536       -7.32979        1.74372
C         15.42524       -5.83351        2.00129
C         16.12122       -4.94040        0.95809
P         17.94314       -4.97773        0.97619
O         18.55179       -6.33094        1.07816
O         18.39352       -4.13270       -0.31981
C         18.64365       -4.81306       -1.58515
C         19.11181       -3.77905       -2.58757
O         18.25618       -3.94938        2.16267
C         19.64305       -3.69834        2.55523
C         19.65056       -2.54312        3.53349
C         15.30873       -9.74116        2.32616
N         14.90753      -10.51681        3.54491
C         15.23043       -9.62000        4.74428
C         15.27272       -8.19127        4.15113
C         14.24434       -9.86319        5.88963
C         14.07281      -11.34889        6.22566
O         15.37365      -11.92605        6.25400
C         15.44648      -13.34492        6.13830
C         15.11812      -13.86865        4.74323
O         15.87556      -13.13069        3.76617
C         15.96324      -13.80517        2.50186
H          0.24155       -8.40224       -7.18149
H          0.23422       -7.46858       -5.67326
H          0.23661       -9.24115       -5.61847
H          2.54135       -7.50390       -6.72354
H          2.54358       -9.26325       -6.67155
H          2.39129       -9.19018       -4.15774
H          2.39020       -7.42975       -4.20904
H          4.67160       -7.45562       -5.27814
H          4.67218       -9.21680       -5.23976
H          4.50730       -9.16299       -2.72497
H          4.50698       -7.40212       -2.76174
H          6.79285       -7.42075       -3.82113
H          6.79316       -9.18211       -3.79391
H          6.61748       -9.14311       -1.27869
H          6.61735       -7.38185       -1.30589
H          8.90530       -7.39856       -2.36658
H          8.90598       -9.15983       -2.33616
H          8.72770       -9.11374        0.18055
H          8.73062       -7.35230        0.14691
H         11.01625       -7.37905       -0.92233
H         11.01412       -9.13989       -0.87835
H         10.83808       -9.06613        1.64347
H         10.85968       -7.30565        1.58737
H         13.13254       -7.37888        0.48804
H         13.10873       -9.13399        0.57175
H         12.81473       -8.89787        3.13544
H         13.04519       -7.18323        2.95879
H         15.40598       -7.54902        0.69212
H         16.73192       -7.53926        1.83833
H         15.77356       -5.55927        3.00976
H         14.34926       -5.59938        1.97509
H         15.82388       -3.88936        1.07921
H         15.81948       -5.24013       -0.05887
H         17.71079       -5.29643       -1.92165
H         19.39468       -5.59815       -1.41814
H         18.35168       -3.00085       -2.73670
H         19.30485       -4.26169       -3.55560
H         20.04002       -3.29879       -2.25182
H         20.22602       -3.46148        1.65236
H         20.04699       -4.61968        3.00014
H         19.24716       -1.63313        3.07068
H         20.68099       -2.33797        3.85487
H         19.05358       -2.77583        4.42540
H         16.40096       -9.81369        2.23273
H         14.84192      -10.18173        1.43692
H         15.36012      -11.47072        3.63259
H         13.89269      -10.67437        3.51058
H         16.22748       -9.94521        5.06241
H         16.28948       -7.78698        4.24225
H         14.60090       -7.51421        4.69403
H         13.26037       -9.42423        5.65817
H         14.63061       -9.32386        6.76637
H         13.43224      -11.84625        5.46983
H         13.56127      -11.47269        7.19659
H         14.79073      -13.84956        6.87176
H         16.48814      -13.58920        6.38573
H         14.03998      -13.79939        4.50477
H         15.39273      -14.93648        4.70203
H         16.55863      -13.16623        1.83898
H         14.96559      -13.97106        2.06081
H         16.47203      -14.77451        2.61717
