63

C          1.94908        0.67420       -0.31405
O          3.32290        0.67000        0.11166
C          3.53376        0.02549        1.36242
C          5.03226        0.14837        1.71113
C          5.51032       -0.94141        2.66968
C          7.02558       -0.95503        2.91065
C          7.41033       -1.84291        4.10018
S          9.14325       -1.64323        4.59310
C          9.05115       -0.11156        5.52805
S          7.64152        0.71455        5.84974
N         10.27887        0.29041        5.95378
C         11.47327       -0.50084        5.73671
C         11.84060       -1.46413        6.68356
C         13.00649       -2.20679        6.49195
C         13.80167       -1.98544        5.36378
C         13.43246       -1.01833        4.42390
C         12.26796       -0.27146        4.60765
C         10.43915        1.53230        6.68383
C         10.80333        2.68810        5.98862
C         10.98283        3.88316        6.68752
C         10.80286        3.91733        8.07313
C         10.44802        2.75371        8.76197
C         10.26577        1.55560        8.06959
N          5.79495        0.10119        0.34046
C          6.66047        1.32688        0.30181
C          5.88878        2.29339        1.21678
O          5.36281        1.41380        2.22513
C          6.77683        3.34772        1.82925
C          7.34053        3.18977        3.09757
C          8.19368        4.19066        3.57130
N          8.52111        5.28773        2.87249
C          7.97061        5.42626        1.65725
C          7.08945        4.49843        1.09654
H          1.92660        1.16974       -1.28967
H          1.32709        1.23480        0.40003
H          1.56554       -0.35403       -0.40995
H          3.22891       -1.03646        1.31150
H          2.96799        0.51625        2.17223
H          5.14652       -1.92129        2.32130
H          4.99916       -0.73839        3.62456
H          7.35636        0.06643        3.13895
H          7.57705       -1.30234        2.01833
H          7.30421       -2.91393        3.87444
H          6.79242       -1.59319        4.97571
H         11.20983       -1.62637        7.55768
H         13.29593       -2.95801        7.22700
H         14.71365       -2.56496        5.21891
H         14.05491       -0.84246        3.54621
H         11.96677        0.48469        3.88248
H         10.93713        2.64972        4.90740
H         11.26185        4.78854        6.14734
H         10.94140        4.85191        8.61683
H         10.30830        2.77837        9.84306
H          9.97373        0.64506        8.59278
H          5.03985        0.15804       -0.37514
H          6.32914       -0.76810        0.24195
H          6.77188        1.67832       -0.72942
H          7.63799        1.07932        0.73040
H          5.06047        2.76542        0.65934
H          7.12249        2.32569        3.72658
H          8.63028        4.09830        4.56933
H          8.24095        6.33021        1.10473
H          6.65758        4.68273        0.11037
