34

N          0.87321        0.23768       -0.07656
C          2.31425        0.23808       -0.25524
C          2.92392        1.25276        0.74107
P          4.73257        1.22352        0.75901
C          5.35833        1.64844       -0.96310
O          5.16600        2.76113       -1.39068
O          5.95753        0.60357       -1.51084
C          6.47852        0.76783       -2.90251
C          5.38794        0.50137       -3.91702
C          5.47868        2.39910        1.92946
C          4.93970        2.30257        3.36735
C          5.28790        1.00696        4.10832
C          4.43850        0.86209        5.37771
O          3.40559        1.46162        5.54904
O          4.88424       -0.02591        6.30060
H          0.45091       -0.62864       -0.40500
H          0.42018        1.01035       -0.56343
H          2.66053        0.47846       -1.28066
H          2.68777       -0.77054       -0.02177
H          2.57211        1.03828        1.76262
H          2.63036        2.28706        0.49773
H          5.14471       -0.09469        1.06552
H          7.28341        0.02619       -2.94146
H          6.89419        1.77987       -2.97944
H          4.95513       -0.49860       -3.78493
H          5.82913        0.54565       -4.92237
H          4.59258        1.25568       -3.86906
H          5.27911        3.39200        1.49520
H          6.56727        2.23567        1.87454
H          3.84965        2.44243        3.39086
H          5.35176        3.15849        3.92108
H          6.36242        0.95918        4.34557
H          5.06838        0.11121        3.49916
H          5.74110       -0.40865        6.04073
