121

C          0.38162        0.82821       -1.01817
C          1.66904        1.56477       -1.39683
C          2.31608        2.30946       -0.22319
C          3.59501        3.06141       -0.60504
C          4.27991        3.76606        0.57134
C          5.55609        4.51155        0.16761
C          6.27441        5.20974        1.32822
C          7.56439        5.91075        0.89038
C          8.34103        6.59072        2.02449
C          9.66289        7.19176        1.53702
C         10.53980        7.80638        2.63711
C         11.90473        8.20147        2.06369
C         12.93857        8.84578        3.03224
C         13.13825        8.02729        4.32844
C         13.66868        6.58936        4.13880
C         15.20312        6.51002        4.19533
S         15.87726        4.89055        3.74580
C         15.90375        4.92622        1.96694
S         15.43862        6.25844        1.03105
N         16.34106        3.78308        1.40759
C         16.38672        3.61198       -0.05850
C         17.72374        4.03451       -0.66763
C         16.81094        2.62720        2.19642
C         15.71480        1.59847        2.48140
N         14.20705        8.89172        2.24659
C         14.42948        9.99512        1.59346
S         13.37802       11.28945        1.88950
C         12.60551       10.35496        3.30973
C         13.09250       10.95769        4.63749
C         12.87508       12.46610        4.73850
O         11.50980       12.73206        4.45248
C         11.20121       14.10098        4.18157
C         11.70936       14.58451        2.82957
O         11.12684       13.74910        1.83061
C         11.57697       13.85676        0.53577
C         12.56494       14.74771        0.09991
C         12.97204       14.72112       -1.23623
C         12.42717       13.82839       -2.17134
C         11.41464       12.97003       -1.71023
C         10.99456       12.97477       -0.38261
C         12.94697       13.79147       -3.61445
C         14.42115       13.26341       -3.68395
C         14.91746       11.93458       -3.03237
C         14.07976       10.69797       -3.40823
C         16.35374       11.72297       -3.55938
C         14.99330       12.02377       -1.49301
C         12.01859       12.98716       -4.54845
C         12.97450       15.23376       -4.18172
H         -0.04305        0.29034       -1.87707
H         -0.38577        1.52669       -0.65205
H          0.56208        0.09078       -0.22153
H          1.45860        2.28052       -2.20973
H          2.39612        0.84549       -1.81125
H          2.54132        1.58990        0.58417
H          1.58684        3.02084        0.20382
H          3.36048        3.80476       -1.38749
H          4.30731        2.35459       -1.06709
H          4.52140        3.02256        1.35150
H          3.57254        4.47386        1.03821
H          5.31108        5.25744       -0.60911
H          6.25303        3.80019       -0.31052
H          6.50891        4.46871        2.11246
H          5.59447        5.94206        1.79701
H          7.32732        6.65815        0.11307
H          8.22391        5.17127        0.40213
H          8.54745        5.85252        2.81938
H          7.71824        7.37407        2.48950
H          9.46005        7.95335        0.76435
H         10.24295        6.39977        1.03078
H         10.66570        7.06793        3.44526
H         10.02968        8.67510        3.08632
H         11.76017        8.89673        1.21998
H         12.37259        7.30483        1.62762
H         12.16618        7.99357        4.83873
H         13.81623        8.56876        5.00244
H         13.31071        6.15646        3.19478
H         13.26258        5.95302        4.93681
H         15.56295        6.65540        5.22533
H         15.70905        7.25453        3.56661
H         15.56077        4.19259       -0.48661
H         16.18918        2.54801       -0.25289
H         17.91002        5.10253       -0.50043
H         17.70500        3.85420       -1.75067
H         18.56138        3.46203       -0.24639
H         17.25896        2.99723        3.12943
H         17.62978        2.17088        1.62233
H         14.90487        2.03281        3.08058
H         16.14022        0.75506        3.04107
H         15.28484        1.20151        1.55218
H         14.70271        7.98862        1.98503
H         15.23165       10.06839        0.85723
H         11.52720       10.52830        3.21164
H         14.16260       10.75371        4.79754
H         12.53680       10.46735        5.45146
H         13.54561       12.98809        4.03073
H         13.14190       12.81311        5.75439
H         11.59741       14.76326        4.97370
H         10.10467       14.15486        4.20453
H         12.81158       14.54066        2.77144
H         11.41080       15.63901        2.68919
H         13.01792       15.46899        0.77829
H         13.75247       15.41925       -1.54061
H         10.93505       12.27332       -2.39640
H         10.20570       12.30377       -0.04035
H         15.07209       14.05925       -3.28347
H         14.66490       13.20401       -4.75852
H         13.96316       10.59853       -4.49640
H         13.07951       10.72539       -2.95581
H         14.57750        9.78465       -3.04690
H         16.36321       11.60276       -4.65217
H         16.80381       10.82048       -3.11906
H         17.00180       12.57667       -3.31125
H         13.99799       12.05391       -1.03208
H         15.54537       12.91583       -1.16395
H         15.53101       11.13929       -1.11207
H         11.90604       11.93485       -4.26732
H         12.42204       13.00747       -5.57021
H         11.01597       13.43746       -4.58093
H         13.65195       15.89183       -3.62190
H         11.97028       15.67872       -4.15493
H         13.31570       15.22470       -5.22670
