37

C          0.85776        0.38853       -0.12054
C          2.38397        0.46097       -0.16750
C          2.99756        0.53427        1.25789
C          4.48672        0.61293        1.23046
N          5.18858       -0.56572        1.24204
C          4.53594       -1.76498        1.30527
C          4.03177       -2.85987        1.35428
C          6.58516       -0.62094        1.18649
C          7.30870        0.52645        1.11402
C          6.65764        1.78873        1.09057
C          5.21949        1.82650        1.14537
C          4.56376        3.08338        1.10796
C          5.27209        4.27536        1.03262
C          4.52063        5.58584        1.01336
C          5.35906        6.86215        0.91105
N          4.47499        8.02161        0.99023
C          6.69148        4.21073        0.99271
C          7.36684        3.00426        1.01662
H          0.44460        0.34263       -1.13635
H          0.42657        1.26935        0.37586
H          0.51314       -0.50413        0.41998
H          2.70958        1.34142       -0.74245
H          2.78982       -0.41974       -0.68856
H          2.68859       -0.35057        1.83269
H          2.59894        1.40836        1.78858
H          3.56420       -3.82332        1.39831
H          7.00122       -1.62410        1.20758
H          8.39570        0.46339        1.07299
H          3.47517        3.12481        1.13907
H          3.89975        5.65677        1.92211
H          3.80315        5.55777        0.17427
H          5.98348        6.82567       -0.00649
H          6.05237        6.91914        1.76577
H          3.89539        8.10698        0.15408
H          5.00952        8.88591        1.06931
H          7.26730        5.13440        0.94249
H          8.45679        2.98358        0.98311
