91

C         13.03408       15.19819        9.72481
C         12.91137       15.25208        8.19987
C         13.37181       13.96529        7.50581
C         13.25115       14.01375        5.97956
C         13.70674       12.72834        5.28172
C         13.56913       12.77848        3.75684
C         14.00159       11.48721        3.05560
C         13.82018       11.52289        1.53482
C         14.20767       10.21327        0.84187
C         13.97430       10.21850       -0.67213
C         14.30319        8.88019       -1.33938
C         14.08403        8.86414       -2.85510
C         14.39985        7.50203       -3.48358
C         14.23260        7.42442       -5.00977
C         15.08980        8.40883       -5.82378
C         16.58234        8.37575       -5.46745
C         17.45882        9.15821       -6.47107
C         17.85628        8.28139       -7.67710
C         18.95975        7.28931       -7.32592
N         20.15576        7.99919       -6.75888
C         19.86875        8.86228       -5.53753
C         18.72859        9.84531       -5.89660
C         18.43129       10.85379       -4.77325
C         19.64287       11.67980       -4.32986
C         19.30173       12.75476       -3.29353
C         20.54544       13.45145       -2.72944
N         21.40265       12.49157       -2.01195
C         19.68538        8.00764       -4.27369
C         20.94318        7.32400       -3.70276
C         21.40063        6.03033       -4.38316
N         21.98320        6.28138       -5.72959
H         12.69349       16.13330       10.19043
H         14.07629       15.03258       10.03649
H         12.43093       14.37951       10.14519
H         13.49751       16.10257        7.81189
H         11.86371       15.45759        7.92136
H         12.78429       13.11338        7.89194
H         14.42042       13.75694        7.78387
H         13.83815       14.86611        5.59387
H         12.20222       14.22310        5.70440
H         13.12333       11.87547        5.67132
H         14.75809       12.51976        5.54845
H         14.15880       13.62536        3.36323
H         12.51873       12.99724        3.49520
H         13.42598       10.63987        3.46812
H         15.05913       11.27599        3.29488
H         14.41165       12.35441        1.11196
H         12.76616       11.75600        1.30213
H         13.63441        9.38371        1.29181
H         15.26976        9.98882        1.04799
H         14.57545       11.02120       -1.13606
H         12.92059       10.47669       -0.87674
H         13.69400        8.08474       -0.87590
H         15.35421        8.61344       -1.12373
H         14.70570        9.65373       -3.31367
H         13.03936        9.13888       -3.08240
H         13.74889        6.73932       -3.02655
H         15.42751        7.20739       -3.20487
H         13.17437        7.58694       -5.26994
H         14.46759        6.39671       -5.33527
H         14.72158        9.43880       -5.68665
H         14.95333        8.18464       -6.89499
H         16.91258        7.32372       -5.40739
H         16.71254        8.78141       -4.45482
H         16.83993        9.98323       -6.86177
H         18.19505        8.91679       -8.51288
H         16.98937        7.71913       -8.05326
H         19.30539        6.72682       -8.20347
H         18.63406        6.55988       -6.57269
H         20.54020        8.61205       -7.48826
H         20.94024        7.27257       -6.47623
H         20.79220        9.44842       -5.40638
H         19.13596       10.44662       -6.73497
H         17.99564       10.34558       -3.89760
H         17.63994       11.52731       -5.14160
H         20.10250       12.16148       -5.21174
H         20.42127       11.03746       -3.88753
H         18.73868       12.29757       -2.46004
H         18.63265       13.51212       -3.73292
H         20.22674       14.30965       -2.10908
H         21.13720       13.86872       -3.55990
H         20.99291       12.26874       -1.10279
H         22.31277       12.90783       -1.81412
H         18.88556        7.26393       -4.40797
H         19.30723        8.69417       -3.50455
H         20.73538        7.07225       -2.65235
H         21.78064        8.04305       -3.66789
H         20.54333        5.35311       -4.51787
H         22.11956        5.51021       -3.73137
H         22.17423        5.39707       -6.20573
H         22.89020        6.74549       -5.62975
