45

C          5.28106       -2.10418        0.52744
C          4.78747       -0.72871        0.97871
C          3.25713       -0.53027        0.94517
C          2.58718       -1.53443        1.91695
P          0.77410       -1.51367        1.97522
C          0.07437       -1.64801        0.29277
C         -1.45667       -1.78471        0.14354
C         -2.32883       -0.67142        0.72495
C         -2.07388        0.77968        0.20323
Br        -2.16866        0.90996       -1.73848
F         -2.93023        1.64219        0.76483
F         -0.81201        1.15513        0.59921
Br        -4.20233       -1.12969        0.45317
F         -2.09877       -0.60574        2.10436
C          0.13567       -2.82570        3.07111
C          0.68166       -2.79451        4.51283
C          0.14760       -1.63250        5.35973
S          1.08245       -1.56147        6.90704
O          0.76884       -2.72469        7.70586
O          2.43781       -1.21541        6.55606
O          0.41904       -0.25940        7.59920
C          2.89089        0.92418        1.26550
H          6.37716       -2.12025        0.48047
H          4.90672       -2.35714       -0.47572
H          4.98657       -2.91002        1.21559
H          5.22337        0.04387        0.32692
H          5.15229       -0.50731        1.99594
H          2.91895       -0.76795       -0.07915
H          2.92197       -1.34198        2.95132
H          2.87247       -2.57098        1.67465
H          0.37117       -0.27216        2.50518
H          0.54076       -2.54406       -0.14707
H          0.46076       -0.78479       -0.26738
H         -1.80555       -2.71725        0.60742
H         -1.68054       -1.86707       -0.92776
H          0.40455       -3.77875        2.58839
H         -0.96161       -2.74803        3.05541
H          1.78116       -2.77198        4.50474
H          0.40008       -3.74260        4.99166
H         -0.91382       -1.75228        5.61441
H          0.29385       -0.64589        4.89746
H         -0.08751       -0.55935        8.37999
H          3.19181        1.19334        2.28911
H          1.81664        1.13640        1.16058
H          3.41421        1.60306        0.57991
