57

C          0.63457       -0.01975       -0.11289
C          2.11720        0.15631       -0.44781
C          2.89847        0.81314        0.69611
C          4.37388        0.98407        0.37814
O          5.01669        1.59773        1.51170
C          6.39385        1.81200        1.33060
C          6.90065        2.58411        2.57039
C          6.17199        3.95772        2.73252
C          7.27696        4.95097        3.11813
N          8.49712        4.28353        2.60427
C          8.31561        3.02848        2.35032
C          9.80417        4.97104        2.55727
C          9.76324        6.16001        1.71992
C          9.74269        7.15300        1.03225
C          6.72343        1.73061        3.86984
C          7.61217        0.48022        4.02450
P          9.21503        0.90360        4.76884
O          9.83473        2.10676        4.13237
O          8.94873        1.20884        6.31625
C          8.53868        0.17921        7.27532
C          7.38569        0.70074        8.10693
O         10.03753       -0.45657        4.64321
C         11.51063       -0.47187        4.65965
C         12.05968       -0.62975        6.06274
H          0.09082       -0.48703       -0.94418
H          0.15619        0.94800        0.09663
H          0.50046       -0.65632        0.77359
H          2.22066        0.76480       -1.36131
H          2.56212       -0.82533       -0.68053
H          2.80030        0.20589        1.61062
H          2.46667        1.80120        0.92406
H          4.51688        1.62387       -0.51390
H          4.85080        0.00681        0.17120
H          6.58790        2.41167        0.41663
H          6.94227        0.85421        1.21410
H          5.37248        3.91192        3.47920
H          5.71591        4.24848        1.77727
H          7.39739        5.09054        4.20391
H          7.18418        5.93812        2.64854
H          9.12803        2.42639        1.95028
H         10.54869        4.24514        2.20215
H         10.07269        5.22485        3.59647
H          9.73686        8.03493        0.42362
H          5.66813        1.42631        3.85700
H          6.85398        2.38893        4.74198
H          7.79877       -0.02518        3.06603
H          7.10913       -0.26034        4.66295
H          9.41845       -0.03416        7.89772
H          8.27314       -0.74536        6.74062
H          7.66345        1.63216        8.61595
H          7.11966       -0.04159        8.87199
H          6.49608        0.88884        7.49086
H         11.86721        0.45039        4.18030
H         11.77342       -1.32653        4.02440
H         11.81664        0.23672        6.69201
H         13.15474       -0.70958        6.01230
H         11.67606       -1.54121        6.53957
