34

C          0.89913       -0.60340        0.03576
C          2.40235       -0.39454       -0.18395
C          3.18785       -0.99318        0.97708
N          4.69959       -0.87427        0.90093
C          5.20439        0.52955        0.73710
O          5.25650        0.70323       -0.65846
C          5.81877       -0.45872       -1.19907
C          5.35971       -1.62720       -0.26619
C          6.42080       -2.60252        0.24933
C          5.91261       -3.55063        1.34767
C          7.00796       -4.52626        1.85970
N          7.77120       -3.83867        2.91230
O          5.47915       -2.77884        2.48798
Br         7.79459       -0.26895       -1.37201
H          0.33031       -0.17536       -0.79806
H          0.55624       -0.11506        0.95845
H          0.64425       -1.67027        0.10213
H          2.61751        0.67913       -0.28120
H          2.70277       -0.86157       -1.13474
H          2.98535       -2.06861        1.08444
H          2.90818       -0.51441        1.92741
H          5.06934       -1.37690        1.77316
H          6.20191        0.60087        1.20182
H          4.51108        1.25922        1.16819
H          5.47779       -0.56148       -2.23232
H          4.55711       -2.17767       -0.77550
H          7.28652       -2.03707        0.62708
H          6.78148       -3.18473       -0.61175
H          5.04980       -4.13242        0.98643
H          7.62603       -4.88753        1.02404
H          6.51140       -5.39569        2.30806
H          8.62959       -3.41141        2.56736
H          8.02386       -4.46542        3.67321
H          6.29490       -2.84695        3.08130
