34

C          4.61171        2.08117       -1.28435
C          3.54059        2.15705       -0.21515
O          4.12389        2.00370        1.13399
C          4.29137        0.76437        1.58237
O          3.98399       -0.26567        1.00645
C          4.98875        0.78795        2.95758
C          4.48887       -0.30895        3.83718
N          3.86216       -0.07955        5.00167
N          3.62511       -1.24135        5.59422
N          4.07673       -2.18322        4.80238
N          4.60336       -1.65247        3.66710
C          5.19382       -2.49747        2.63147
C          6.53464       -3.06597        3.11677
O          6.76208       -3.29725        4.29038
O          7.34196       -3.28396        2.08728
C          8.62496       -3.91674        2.39325
N          3.94133       -3.53614        4.97179
C          6.52803        0.76688        2.78108
H          4.15264        2.28032       -2.26247
H          5.07093        1.08543       -1.32726
H          5.39246        2.83473       -1.11925
H          2.77240        1.38359       -0.33851
H          3.06855        3.14459       -0.16851
H          4.70282        1.71320        3.47628
H          5.25319       -1.89832        1.71780
H          4.49895       -3.33165        2.44644
H          9.09946       -4.06954        1.42122
H          8.45704       -4.86988        2.90704
H          9.22278       -3.24851        3.02388
H          3.21482       -3.68843        5.67577
H          4.85166       -3.92293        5.25555
H          6.86716       -0.10110        2.20085
H          7.02523        0.75918        3.75874
H          6.83707        1.67210        2.24575
