50

C          4.51504       -6.08019       -1.18559
C          5.24863       -4.76222       -0.92475
C          5.79336       -4.64248        0.50362
C          6.54248       -3.33102        0.76112
C          7.05770       -3.18620        2.19699
C          7.82494       -1.87822        2.42439
C          8.27541       -1.68612        3.88105
C          9.04281       -0.38623        4.03430
O          9.33893       -0.09580        5.46630
C         10.46223       -0.54837        5.96551
O         11.34553       -1.18822        5.40651
C         10.61633       -0.19033        7.45312
N         12.03212       -0.56511        7.78273
C         12.99515        0.60142        7.81657
C         14.45263        0.16998        7.81694
C         14.85450       -0.72304        6.63521
C         16.36547       -0.98358        6.57738
C         16.76972       -1.89167        5.41463
Br        12.16075       -1.68325        9.35610
H          4.12769       -6.12721       -2.21222
H          3.66125       -6.20475       -0.50304
H          5.18114       -6.94411       -1.04250
H          4.56942       -3.91588       -1.12405
H          6.08136       -4.65496       -1.64059
H          6.46451       -5.49477        0.71109
H          4.95802       -4.73487        1.22030
H          5.87802       -2.48030        0.52847
H          7.39071       -3.25183        0.05859
H          7.71045       -4.04132        2.44426
H          6.20711       -3.23859        2.89859
H          7.18885       -1.02736        2.12609
H          8.70430       -1.85161        1.75846
H          8.90857       -2.53142        4.19410
H          7.39621       -1.66854        4.54430
H          8.44721        0.48367        3.73307
H          9.99714       -0.39260        3.49249
H          9.91786       -0.78010        8.05822
H         10.45018        0.87399        7.65424
H         12.29656       -1.18275        6.96603
H         12.72447        1.21701        8.68503
H         12.75417        1.15995        6.89616
H         14.70015       -0.31376        8.77547
H         15.03889        1.10303        7.79657
H         14.52615       -0.25890        5.68883
H         14.33838       -1.70004        6.69349
H         16.69362       -1.42892        7.53113
H         16.88943       -0.01698        6.49616
H         16.30354       -2.88460        5.49844
H         17.85700       -2.03865        5.39025
H         16.47092       -1.46300        4.44694
