57

C         11.46338       11.86258        0.94538
O         10.33720       11.39521        0.20741
C         10.24357        9.98589        0.18150
C          8.91183        9.65586       -0.49563
O          8.77837        8.27722       -0.86875
C          8.58304        7.38304        0.23522
C          7.99123        6.08747       -0.30530
O          8.70085        5.58105       -1.43916
C          9.99288        5.04589       -1.17391
C         10.63706        4.74448       -2.52443
C         10.83833        5.95896       -3.37380
N         10.28362        7.17298       -3.18544
C         10.66707        8.05068       -4.18993
C         11.48708        7.32776       -5.01457
N         11.58515        6.04181       -4.49862
C         12.38490        4.96367       -5.11008
C         13.89395        5.21348       -5.03414
C         14.47061        5.22457       -3.60250
C         14.24140        3.97712       -2.88325
C         14.03405        2.92685       -2.31695
C         10.17841        9.45590       -4.29075
C          8.67145        9.54846       -4.61569
C          8.19948       10.98822       -4.83127
C          8.77027       11.61470       -6.10143
O          9.49274       11.03667       -6.88049
O          8.41502       12.90665       -6.33538
H         11.43381       12.95744        0.91225
H         12.41071       11.51033        0.49904
H         11.41796       11.52879        1.99692
H         10.28606        9.57138        1.20806
H         11.08105        9.53724       -0.39454
H          8.83777       10.23192       -1.42871
H          8.06869        9.95209        0.15123
H          7.87422        7.81776        0.96252
H          9.53695        7.20888        0.76427
H          6.97297        6.26749       -0.67508
H          7.94270        5.33720        0.50480
H          9.91984        4.11316       -0.58687
H         10.62025        5.75412       -0.60157
H          9.99552        4.03182       -3.07042
H         11.60535        4.24503       -2.36106
H          9.64700        7.40284       -2.40050
H         11.99180        7.61943       -5.92798
H         12.06532        4.87726       -6.15738
H         12.12583        4.02594       -4.60329
H         14.14677        6.16237       -5.52959
H         14.37806        4.41468       -5.61405
H         14.05212        6.06793       -3.02742
H         15.55387        5.41416       -3.66098
H         13.89901        1.99273       -1.81118
H         10.74714        9.95279       -5.08728
H         10.39602        9.99264       -3.35221
H          8.08221        9.09617       -3.80370
H          8.46905        8.96894       -5.52767
H          8.46201       11.62855       -3.97136
H          7.10005       11.01389       -4.90630
H          7.82441       13.23337       -5.63347
