83

C          5.73564       -0.79640        5.68436
C          7.14742       -0.47364        5.19132
C          7.38745        1.02360        4.97251
C          8.79955        1.34659        4.47658
C          9.03444        2.83274        4.18891
C         10.45410        3.13213        3.69853
C         10.69210        4.59866        3.32563
C         12.12669        4.86938        2.86006
C         12.37915        6.32383        2.44503
C         13.84546        6.63082        2.09654
C         14.37454        5.93723        0.82905
C         13.84973        6.51468       -0.47793
O         14.26352        7.89858       -0.70864
C         15.62700        8.04370       -0.99714
P         15.79861        9.78097       -1.56205
C         15.09702       10.86285       -0.27689
C         14.98671       12.36295       -0.60354
O         16.29352       12.92797       -0.86104
C         16.96577       13.41871        0.24017
O         16.59820       13.22724        1.37770
C         18.16907       14.22650       -0.17480
S         17.66931       15.96091       -0.49351
C         14.11010       12.68226       -1.81189
O         13.93475       14.09796       -1.89099
C         14.58126       14.74106       -2.92351
O         15.27814       14.17405       -3.73778
C         14.27029       16.21557       -2.89897
S         12.63903       16.54741       -3.66291
C         17.51026       10.19575       -2.02487
C         18.15519        9.29654       -3.10093
C         17.47429        9.29729       -4.47917
C         17.52991       10.65447       -5.19329
S         16.50851       10.55999       -6.68817
O         17.10057        9.62086       -7.60981
O         15.12581       10.44642       -6.27710
Cl        16.78809       12.46121       -7.45088
H          5.59579       -1.87664        5.82730
H          4.97545       -0.45441        4.96629
H          5.52703       -0.30367        6.64560
H          7.34057       -1.01066        4.24723
H          7.88757       -0.85705        5.91392
H          7.19527        1.56653        5.91462
H          6.64846        1.40658        4.24651
H          9.00197        0.76665        3.55870
H          9.53590        0.99796        5.22196
H          8.82852        3.42230        5.09927
H          8.30595        3.17618        3.43350
H         10.67407        2.49778        2.82152
H         11.17789        2.83232        4.47652
H         10.46196        5.24319        4.19167
H          9.98451        4.89324        2.53078
H         12.35871        4.18730        2.02384
H         12.82634        4.60176        3.67133
H         12.07737        6.98731        3.27146
H         11.71733        6.58772        1.60127
H         14.47789        6.32887        2.94623
H         13.97830        7.72064        1.99249
H         14.10355        4.86943        0.83534
H         15.47752        5.94632        0.82121
H         12.75370        6.57185       -0.48798
H         14.17299        5.91134       -1.34411
H         15.97340        7.37812       -1.81370
H         16.29805        7.89414       -0.12742
H         14.97862        9.88007       -2.70858
H         15.71162       10.73393        0.62755
H         14.10431       10.43640       -0.06098
H         14.57411       12.84945        0.29326
H         18.58286       13.86989       -1.12590
H         18.93274       14.18554        0.60841
H         17.38613       16.26119        0.79586
H         13.11264       12.23735       -1.67681
H         14.55331       12.32386       -2.75452
H         15.06031       16.76465       -3.42014
H         14.18689       16.57382       -1.86619
H         13.02399       16.28696       -4.93455
H         18.09162       10.16060       -1.08987
H         17.47709       11.25358       -2.32694
H         18.21085        8.26017       -2.73618
H         19.19890        9.63097       -3.20247
H         16.42477        8.97176       -4.39439
H         17.97053        8.54597       -5.10882
H         18.54481       10.91493       -5.52180
H         17.10427       11.48875       -4.61842
