87

C         11.55597       -3.14165      -17.66530
C         10.86525       -2.14995      -16.72563
C         11.78764       -1.61961      -15.62207
C         11.10756       -0.63215      -14.66816
C         12.03586       -0.10406      -13.56971
C         11.35277        0.86011      -12.59466
C         12.28086        1.37086      -11.48868
C         11.60354        2.31887      -10.49413
C         12.54173        2.78374       -9.37800
C         11.93448        3.80378       -8.41076
C         12.92483        4.24991       -7.33037
C         12.47613        5.48411       -6.53993
C         13.44335        5.91683       -5.42198
C         14.91510        6.04304       -5.84838
C         15.16405        7.02229       -7.00661
C         16.55809        6.79396       -7.61177
C         17.05930        7.66904       -8.77385
C         16.76763        9.17200       -8.56127
N         17.32816       10.06985       -9.55646
C         17.00194        9.65510      -10.91198
C         17.31411        8.18411      -11.19358
N         16.62468        7.21932      -10.21062
C         15.11952        7.33317      -10.37769
C         14.60475        7.09567      -11.79973
C         13.09091        6.91575      -11.79325
F         12.46549        7.96971      -11.20659
F         12.61812        6.79619      -13.04956
F         12.73009        5.79811      -11.10512
C         17.13247        5.76412      -10.58417
C         18.53662        5.43676      -10.06513
O         19.52482        6.32456      -10.58027
C         16.20622        4.58847      -10.19596
C         16.20707        3.48782      -11.26478
H         10.87167       -3.50353      -18.44495
H         11.92770       -4.01994      -17.11649
H         12.41817       -2.67953      -18.16953
H          9.98538       -2.62965      -16.26392
H         10.47285       -1.29970      -17.30940
H         12.66566       -1.13470      -16.08564
H         12.18675       -2.47071      -15.04202
H         10.23364       -1.11959      -14.20130
H         10.70397        0.21790      -15.24609
H         12.90197        0.39941      -14.03600
H         12.45237       -0.95683      -13.00501
H         10.48552        0.35664      -12.13337
H         10.93963        1.71832      -13.15318
H         13.14595        1.88463      -11.94873
H         12.70055        0.50830      -10.94074
H         10.72654        1.81854      -10.04975
H         11.20941        3.19784      -11.03307
H         13.44326        3.23032       -9.83616
H         12.89958        1.90586       -8.81153
H         11.03127        3.38348       -7.93800
H         11.59249        4.68490       -8.98018
H         13.89509        4.45638       -7.81931
H         13.12208        3.41352       -6.63748
H         11.48928        5.29201       -6.09007
H         12.31150        6.31858       -7.24429
H         13.39400        5.18606       -4.59938
H         13.09598        6.87233       -4.99686
H         15.29116        5.04771       -6.13926
H         15.52126        6.34513       -4.97946
H         15.05381        8.05584       -6.64486
H         14.37880        6.88345       -7.76302
H         16.65300        5.73005       -7.86786
H         17.30389        6.95111       -6.81378
H         18.15131        7.56259       -8.83529
H         17.17698        9.43126       -7.57463
H         15.68387        9.35473       -8.48822
H         18.33592       10.17446       -9.43647
H         17.58223       10.25419      -11.62735
H         15.94308        9.89009      -11.11293
H         18.38636        7.98826      -11.09638
H         17.00697        7.88551      -12.20312
H         14.83865        8.33691      -10.04890
H         14.66008        6.63279       -9.67816
H         15.01941        6.19045      -12.26173
H         14.81825        7.94206      -12.46456
H         17.18934        5.82158      -11.68061
H         18.72620        4.40472      -10.40379
H         18.54669        5.42017       -8.96195
H         20.40364        5.94948      -10.41362
H         15.17096        4.90517      -10.03625
H         16.53064        4.16954       -9.23161
H         15.78352        3.84706      -12.21382
H         15.59265        2.64231      -10.93222
H         17.21450        3.10256      -11.47287
