87

S          6.46300        2.70146        4.08274
C          5.87632        3.80794        5.40180
C          4.72963        3.27496        6.24970
O          4.45759        2.10690        6.41869
O          4.07746        4.33451        6.80839
C          3.02713        4.17460        7.81911
C          1.62678        3.97696        7.20050
N          1.27964        2.65006        6.71373
C          1.60038        2.14553        5.50549
N          1.99382        2.96329        4.50733
N          1.47484        0.82454        5.27353
C          1.77172        0.25909        3.94865
C          3.28250        0.15756        3.66391
C          3.59324       -1.02780        2.72954
F          2.91991       -0.94720        1.56072
F          4.91437       -1.08301        2.45238
F          3.24357       -2.19634        3.33383
O          3.71059        1.37353        3.06018
C          0.81144       -0.07262        6.24326
C         -0.71636       -0.07692        6.06229
C         -1.47463       -0.86118        7.14301
C         -1.42069       -0.21181        8.53123
C         -2.33078       -0.87895        9.56633
C         -2.18505       -0.26301       10.96132
C         -3.07927       -0.89754       12.02964
C         -2.86123       -0.30826       13.42699
C         -3.73089       -0.95483       14.50971
C         -3.46724       -0.40581       15.91582
C         -4.31536       -1.08124       16.99692
C         -4.00835       -0.55513       18.40607
N         -4.80124       -1.19629       19.44371
C         -4.50289       -2.40043       20.04513
C         -5.55199       -2.73821       20.88098
C         -6.52540       -1.70564       20.77634
C         -6.03813       -0.77189       19.87974
C          3.43270        3.18240        8.92250
O          2.50452        3.31310       10.02721
C          1.55902        2.33807       10.12997
O          1.47743        1.39520        9.36051
C          0.59586        2.60220       11.25617
S         -0.87255        3.46752       10.56675
H          6.89461        1.70290        4.88988
H          5.58705        4.74742        4.91460
H          6.71224        4.05224        6.07423
H          3.00049        5.17835        8.26973
H          1.47867        4.73353        6.41680
H          0.89011        4.22335        7.97941
H          1.05848        1.98092        7.45176
H          2.16594        3.93514        4.72892
H          2.58781        2.55434        3.76587
H          1.29699        0.85209        3.15191
H          1.31656       -0.73642        3.92381
H          3.82301       -0.03548        4.60542
H          4.62665        1.60576        3.35684
H          1.10976        0.19840        7.26444
H          1.22912       -1.07579        6.08088
H         -0.95115       -0.48889        5.06827
H         -1.07544        0.96584        6.05580
H         -1.09361       -1.89549        7.19542
H         -2.52432       -0.94632        6.82049
H         -1.69874        0.85441        8.44020
H         -0.38918       -0.21867        8.91675
H         -2.10054       -1.95694        9.61889
H         -3.38158       -0.80849        9.23719
H         -2.40229        0.81916       10.90624
H         -1.12940       -0.35176       11.27848
H         -2.89434       -1.98524       12.06007
H         -4.13734       -0.77869       11.73955
H         -3.05430        0.77914       13.40126
H         -1.79719       -0.42100       13.70404
H         -3.55949       -2.04527       14.50898
H         -4.79600       -0.81732       14.25546
H         -3.65311        0.68289       15.92535
H         -2.39667       -0.53179       16.15801
H         -4.14592       -2.17009       16.98132
H         -5.38699       -0.93240       16.78750
H         -4.19407        0.52860       18.45914
H         -2.94416       -0.70737       18.64536
H         -3.56764       -2.90903       19.83324
H         -5.60391       -3.62232       21.50827
H         -7.46944       -1.64251       21.30790
H         -6.46050        0.16193       19.52218
H          4.41566        3.46341        9.32041
H          3.45045        2.14623        8.57391
H          1.03718        3.19047       12.06592
H          0.22625        1.64451       11.63926
H         -0.37375        4.72026       10.68828
