68

C          9.83619        6.96813       -1.19287
C          9.36900        5.52044       -1.02011
C         10.03590        4.54189       -1.99417
C          9.55465        3.09628       -1.82925
C         10.24081        2.10291       -2.77334
C          9.72645        0.66744       -2.61985
C         10.42744       -0.34185       -3.53657
C          9.88024       -1.76502       -3.38872
C         10.60242       -2.80220       -4.25883
C         10.03374       -4.21737       -4.08390
C         10.68572       -5.29575       -4.94185
N         12.19665       -5.40139       -4.72318
C         12.59034       -5.68009       -3.29577
C         12.07168       -7.02360       -2.77229
O         11.54295       -7.86892       -3.46707
O         12.31126       -7.08230       -1.46562
C         11.95993       -8.33724       -0.76611
C         13.14062       -9.29256       -0.74429
C         12.82660      -10.55481        0.07201
C         14.00257      -11.53796        0.12273
C         13.70363      -12.78658        0.95523
C         12.87635       -6.32791       -5.73033
C         13.00118       -5.69379       -7.11127
C         13.80074       -6.60080       -8.05487
H          9.34049        7.63754       -0.47664
H          9.61543        7.34225       -2.20361
H         10.92132        7.06034       -1.03639
H          8.27455        5.46902       -1.14905
H          9.56592        5.19022        0.01396
H         11.13120        4.58198       -1.85775
H          9.84918        4.87381       -3.03082
H          8.46304        3.05662       -1.99031
H          9.71641        2.77555       -0.78505
H         11.33040        2.12318       -2.59514
H         10.09894        2.43157       -3.81775
H          8.64100        0.64693       -2.81935
H          9.84607        0.34708       -1.56993
H         11.51047       -0.33932       -3.31981
H         10.32653       -0.01722       -4.58673
H          8.80617       -1.77431       -3.63990
H          9.94612       -2.07499       -2.33114
H         11.67879       -2.77093       -3.99558
H         10.53970       -2.50689       -5.32067
H          8.96942       -4.21792       -4.36649
H         10.04467       -4.50842       -3.02116
H         10.56735       -5.06849       -6.00861
H         10.28151       -6.29450       -4.74464
H         12.56254       -4.45707       -4.91708
H         12.22166       -4.86318       -2.66508
H         13.68764       -5.67035       -3.24646
H         11.08303       -8.76987       -1.26428
H         11.68595       -7.99727        0.23999
H         14.01417       -8.77689       -0.31446
H         13.40243       -9.57447       -1.77720
H         11.94376      -11.06134       -0.35463
H         12.54768      -10.26709        1.10050
H         14.88702      -11.02233        0.53284
H         14.27199      -11.83394       -0.90532
H         13.46956      -12.52519        1.99783
H         14.56371      -13.46903        0.97034
H         12.84532      -13.34340        0.55164
H         12.30027       -7.26009       -5.73615
H         13.87093       -6.54751       -5.31745
H         13.50335       -4.71393       -7.02652
H         12.00700       -5.50752       -7.54456
H         14.81966       -6.77507       -7.68213
H         13.88238       -6.14048       -9.04667
H         13.31261       -7.57709       -8.18021
