68

C          9.36697       -4.64182       -0.13163
C          8.82562       -3.24191        0.16672
C          9.51027       -2.13963       -0.65151
C          8.96109       -0.74223       -0.34013
C          9.63537        0.35318       -1.14808
O          9.03692        1.61182       -0.78375
C          9.54096        2.71023       -1.50516
C          8.70076        3.88040       -0.98796
N          9.04095        5.26177       -1.51596
C          9.05518        5.27856       -3.04720
C          7.74994        4.88803       -3.72950
C          7.93728        4.82149       -5.25362
C          6.64336        4.45498       -5.98913
C          6.81432        4.35696       -7.50943
C          5.51988        3.98355       -8.23576
C          7.99063        6.21459       -0.94822
C          8.28817        7.67785       -1.23875
C          9.66588        8.08432       -0.70492
C         10.76172        7.14996       -1.23334
C         10.41165        5.68005       -0.98610
C         12.11690        7.44135       -0.58051
O         13.07010        6.53739       -1.10343
C         14.39725        6.77139       -0.60221
C         15.32999        5.73695       -1.19926
H          8.85608       -5.40388        0.47190
H         10.44244       -4.71102        0.08877
H          9.22771       -4.90888       -1.18956
H          8.94485       -3.02027        1.24048
H          7.74044       -3.21509       -0.02851
H          9.38777       -2.35610       -1.72717
H         10.59672       -2.16441       -0.45756
H          9.08798       -0.51928        0.73153
H          7.87816       -0.71123       -0.54200
H          9.50141        0.18632       -2.23448
H         10.72253        0.39089       -0.94331
H          9.41047        2.56199       -2.59547
H         10.62231        2.85850       -1.31398
H          8.79931        3.93204        0.10389
H          7.64538        3.69283       -1.21857
H          9.87240        4.60621       -3.33900
H          9.35155        6.29009       -3.34492
H          6.95884        5.61840       -3.49876
H          7.39349        3.90859       -3.37490
H          8.71999        4.08140       -5.49335
H          8.30933        5.79223       -5.62398
H          5.86559        5.20300       -5.75604
H          6.26447        3.49280       -5.60199
H          7.59558        3.61324       -7.73947
H          7.18966        5.31993       -7.89457
H          5.14323        3.00416       -7.90650
H          5.67410        3.93080       -9.32132
H          4.72762        4.72344       -8.04958
H          7.98754        6.02869        0.13549
H          7.02126        5.89510       -1.34695
H          7.49598        8.26944       -0.75794
H          8.20568        7.88667       -2.31663
H          9.65431        8.05020        0.39816
H          9.88936        9.12318       -0.98377
H         10.89419        7.31339       -2.31567
H         10.38687        5.47249        0.09467
H         11.15906        5.02427       -1.44437
H         12.04004        7.33841        0.52318
H         12.40300        8.49048       -0.79093
H         14.38733        6.70860        0.50248
H         14.71189        7.79615       -0.87524
H         15.03239        4.72113       -0.90610
H         16.35485        5.90706       -0.84443
H         15.33375        5.79813       -2.29550
