57

C          0.76040       -0.33258       -0.02104
O          2.19270       -0.39783        0.00889
C          2.90545       -0.77992       -1.08240
C          4.05797       -1.54064       -0.82348
C          4.88587       -1.96832       -1.85430
C          4.59294       -1.65242       -3.18769
C          3.47332       -0.88100       -3.46819
C          2.63813       -0.44576       -2.42808
N          1.55468        0.43004       -2.78073
N          1.62731        1.77999       -2.50315
C          0.52246        2.27117       -3.00671
N         -0.23344        1.27674       -3.59253
C          0.43251        0.10754       -3.43968
C         -0.01336       -1.24265       -3.87288
C         -1.40693       -1.27018       -4.51794
C         -1.80334       -2.70707       -4.86909
S         -3.39603       -2.67361       -5.74037
C         -3.49166       -4.38681       -6.30145
S         -2.30739       -5.50710       -6.02267
N         -4.66629       -4.62636       -6.95703
C         -5.56492       -3.56563       -7.34607
C         -6.81950       -3.46387       -6.73325
C         -7.70327       -2.46351       -7.13948
C         -7.33995       -1.57190       -8.15396
C         -6.09007       -1.68412       -8.76950
C         -5.20088       -2.68377       -8.37230
C         -5.07222       -5.96895       -7.30807
C         -5.22133       -6.30657       -8.65550
C         -5.65851       -7.58799       -8.99814
C         -5.94696       -8.52163       -7.99978
C         -5.80302       -8.17173       -6.65308
C         -5.36904       -6.89401       -6.30177
Br         0.00962        4.04626       -2.96096
H          0.44264       -0.42078        1.02360
H          0.33742       -1.17260       -0.59333
H          0.40028        0.63057       -0.41306
H          4.27101       -1.78873        0.21612
H          5.76924       -2.56136       -1.61734
H          5.24235       -1.98634       -3.99527
H          3.24841       -0.57448       -4.49086
H         -1.13133        1.39156       -4.05848
H          0.02614       -1.90229       -2.98857
H          0.73901       -1.65109       -4.56706
H         -1.40845       -0.65936       -5.43640
H         -2.15260       -0.83770       -3.82951
H         -1.89040       -3.32877       -3.96614
H         -1.06631       -3.19010       -5.52741
H         -7.09426       -4.17079       -5.95014
H         -8.68113       -2.38235       -6.66404
H         -8.03661       -0.79604       -8.47264
H         -5.81177       -1.00214       -9.57363
H         -4.22894       -2.79246       -8.85449
H         -4.99415       -5.57169       -9.42805
H         -5.77189       -7.85605      -10.04889
H         -6.28745       -9.52161       -8.26953
H         -6.03399       -8.89685       -5.87212
H         -5.24784       -6.61362       -5.25555
