52

Br         1.82892        1.25702        0.90364
C          3.55845        0.49032        0.40271
C          3.73110       -0.88888        1.02208
C          5.10248       -1.50100        0.63087
C          5.30794       -2.84928        1.26168
C          6.00396       -2.94679        2.49770
C          6.58801       -1.76299        3.22767
C          8.02144       -1.40957        2.78358
O          8.92802       -2.52840        2.88151
C          9.38836       -2.80842        4.14986
O          8.98430       -2.22291        5.13240
C         10.42441       -3.90547        4.13338
C         10.27802       -4.86808        5.32209
C         11.41098       -5.89252        5.39742
C          6.18320       -4.20108        3.06345
N          5.69045       -5.29828        2.44900
C          4.99411       -5.24530        1.29458
C          4.77290       -4.02348        0.66433
C          3.94640       -4.01175       -0.60499
C          4.28957       -5.08391       -1.64382
O          3.90710       -6.35978       -1.15035
C          4.06999       -7.40845       -2.12383
C          3.58353       -8.71031       -1.52038
H          4.31598        1.20147        0.75214
H          3.56890        0.45971       -0.69318
H          2.91400       -1.54844        0.69556
H          3.65481       -0.81886        2.11761
H          5.90308       -0.81615        0.93544
H          5.17056       -1.58236       -0.46300
H          6.60650       -1.97059        4.30521
H          5.96185       -0.87108        3.09334
H          8.38828       -0.58052        3.40375
H          8.05917       -1.12257        1.72495
H         11.40647       -3.40256        4.18261
H         10.39503       -4.43001        3.16806
H          9.30740       -5.38899        5.24643
H         10.23432       -4.27857        6.24888
H         11.47125       -6.50540        4.48594
H         11.26846       -6.57232        6.24777
H         12.38436       -5.39811        5.52892
H          6.70815       -4.36015        4.00409
H          5.83572       -6.20858        2.88498
H          4.62708       -6.18253        0.87595
H          4.02520       -3.03638       -1.09883
H          2.88464       -4.13063       -0.33094
H          5.37165       -5.06443       -1.88477
H          3.73956       -4.85355       -2.57503
H          5.13429       -7.47490       -2.41741
H          3.48936       -7.14965       -3.02811
H          4.17887       -8.98892       -0.63959
H          3.67357       -9.52050       -2.25598
H          2.52962       -8.63549       -1.22205
