103

C          0.84456        0.24977       -0.88268
C          2.36967        0.11630       -0.89227
C          2.91097       -0.73934        0.25828
C          4.43698       -0.87602        0.26594
C          4.96772       -1.72998        1.42195
C          6.49362       -1.86633        1.44608
C          7.01081       -2.71915        2.60922
C          8.53570       -2.86595        2.64411
C          9.03956       -3.71083        3.81933
C         10.56411       -3.85547        3.87166
C         11.05926       -4.70292        5.04912
C         12.58354       -4.85112        5.10108
C         13.08331       -5.69819        6.27727
C         14.60801       -5.85063        6.30653
C         15.12721       -6.68798        7.48201
C         16.65130       -6.85030        7.46390
C         17.19899       -7.66863        8.63856
C         18.73769       -7.81802        8.54762
C         19.34057       -8.60082        9.65939
N         19.85764       -8.08205       10.79073
C         20.32444       -9.08466       11.61361
C         20.08297      -10.27057       10.97398
N         19.46241       -9.94233        9.76393
C         19.07411      -10.89039        8.70010
C         20.21438      -11.16013        7.71476
C         19.77939      -12.09153        6.57797
C         20.86684      -12.26865        5.51230
C         20.44705      -13.18024        4.35437
C         21.49466      -13.25750        3.23854
C         21.08759      -14.16369        2.07201
C         22.11110      -14.18558        0.93198
C         21.71927      -15.10397       -0.23135
C         22.73360      -15.09454       -1.37788
C         20.37296      -11.66429       11.44155
C         19.42022      -12.19080       12.53672
C         17.98928      -12.41317       12.07934
F         17.92839      -13.25435       11.00521
F         17.23653      -12.94748       13.05964
F         17.38686      -11.24691       11.69104
H          0.48687        0.86723       -1.71821
H          0.49046        0.71534        0.04938
H          0.35711       -0.73340       -0.96420
H          2.82783        1.11886       -0.84503
H          2.69599       -0.31846       -1.85236
H          2.45495       -1.74422        0.20944
H          2.57955       -0.30682        1.21916
H          4.89299        0.12867        0.31461
H          4.76987       -1.31107       -0.69304
H          4.51371       -2.73537        1.36933
H          4.62675       -1.29714        2.37911
H          6.94934       -0.86177        1.49878
H          6.83700       -2.30256        0.49139
H          6.54989       -3.72146        2.55815
H          6.66673       -2.27946        3.56217
H          8.99805       -1.86409        2.68963
H          8.88180       -3.31426        1.69603
H          8.58024       -4.71386        3.76928
H          8.68416       -3.26504        4.76515
H         11.02421       -2.85298        3.92468
H         10.92140       -4.30060        2.92623
H         10.59705       -5.70442        4.99653
H         10.70325       -4.25645        5.99423
H         13.04568       -3.84958        5.15237
H         12.93803       -5.29777        4.15540
H         12.61682       -6.69790        6.23258
H         12.74122       -5.24695        7.22506
H         15.07368       -4.85019        6.34089
H         14.94487       -6.30729        5.35930
H         14.65187       -7.68399        7.46344
H         14.81746       -6.21999        8.43237
H         17.12577       -5.85353        7.46432
H         16.95501       -7.32894        6.51637
H         16.72962       -8.66560        8.65801
H         16.93671       -7.18734        9.59446
H         19.20448       -6.82096        8.54218
H         19.01183       -8.28314        7.58905
H         19.90108       -7.08704       10.98901
H         20.78402       -8.88110       12.57297
H         18.20218      -10.46349        8.18867
H         18.72876      -11.81026        9.18550
H         21.07433      -11.59191        8.25240
H         20.56510      -10.20223        7.29580
H         18.86875      -11.68704        6.10245
H         19.49525      -13.07413        6.99132
H         21.78156      -12.66891        5.98271
H         21.14136      -11.27692        5.11180
H         19.49391      -12.81665        3.93179
H         20.24001      -14.19350        4.73992
H         22.45274      -13.61058        3.65869
H         21.69016      -12.23972        2.85698
H         20.11080      -13.83265        1.67734
H         20.92985      -15.19108        2.44434
H         23.09390      -14.49831        1.32730
H         22.25346      -13.15805        0.55205
H         20.72867      -14.80318       -0.61294
H         21.59704      -16.13358        0.14556
H         22.84133      -14.08697       -1.80724
H         22.43050      -15.76955       -2.18974
H         23.72902      -15.41402       -1.03456
H         21.39104      -11.67624       11.85470
H         20.38728      -12.36006       10.59255
H         19.38610      -11.50442       13.39386
H         19.79082      -13.15754       12.90372
