54

O          3.79403       -3.83729        4.07323
C          3.01237       -3.26107        3.01055
C          2.87948       -1.76218        3.24662
O          4.11825       -1.08004        3.43717
C          4.97073       -0.99902        2.29904
C          6.30536       -0.42281        2.77442
C          6.80929       -1.11187        4.04085
O          8.05551       -0.52083        4.42593
C          8.42259       -0.90955        5.74919
C          8.62553       -2.41908        5.87891
N          7.37531       -3.08876        5.33689
C          6.96186       -2.64304        3.93393
C          7.96716       -3.10291        2.86885
C          8.57797       -4.51768        2.97803
C          7.65136       -5.73123        3.03964
C          6.64636       -5.92796        1.85890
Br         7.52736       -5.98561        0.12091
F          5.91759       -7.04376        2.03982
F          5.76924       -4.87889        1.86120
Br         8.72386       -7.34910        3.25570
F          6.83498       -5.63300        4.18730
Si         9.06489       -3.09949        7.64687
C         10.67027       -2.27869        8.15156
C          7.64643       -2.68005        8.80755
C          9.24928       -4.96131        7.43320
H          3.72610       -4.80138        3.99652
H          1.99381       -3.68489        2.99129
H          3.47848       -3.47619        2.03298
H          2.32015       -1.58271        4.17507
H          2.30742       -1.32221        2.40780
H          4.53009       -0.35036        1.52009
H          5.11911       -1.99623        1.84303
H          6.19294        0.64327        3.01532
H          7.05019       -0.49174        1.96787
H          6.06118       -0.92247        4.83643
H          7.65161       -0.55587        6.46318
H          9.36228       -0.39187        5.97960
H          9.43943       -2.72312        5.20288
H          6.58124       -2.87537        5.95853
H          7.46791       -4.11510        5.34180
H          5.97172       -3.10088        3.78964
H          8.81558       -2.40335        2.84925
H          7.46604       -2.99390        1.89823
H          9.22644       -4.60154        3.86445
H          9.24813       -4.66272        2.12080
H         10.55589       -1.19217        8.26636
H         11.47130       -2.46644        7.42329
H         11.00363       -2.67759        9.12021
H          7.50547       -1.59515        8.90878
H          7.86454       -3.07472        9.81045
H          6.68789       -3.12403        8.49978
H         10.02943       -5.21464        6.70115
H          8.31699       -5.46119        7.12943
H          9.54360       -5.41380        8.39115
