63

C          9.70602        7.80480        5.06559
C          9.22645        7.65967        3.61926
C          9.51204        6.27597        3.02220
C          9.03071        6.13788        1.57314
C          9.28361        4.75695        0.98963
O          8.78722        4.73517       -0.35738
C          8.95292        3.48062       -1.00884
C          8.26953        3.53887       -2.37018
C          8.83442        4.60007       -3.31799
C          8.41735        6.01484       -2.91797
N          8.86181        6.98459       -3.99529
C          8.30818        6.60588       -5.35176
C          8.70743        5.16417       -5.70704
O          8.34095        4.28270       -4.62615
C         10.22519        5.06673       -5.99009
O         10.57470        6.11648       -6.87017
C         11.87996        5.95955       -7.46040
C         12.11200        7.10813       -8.42014
C          7.85289        4.77729       -6.93190
C          8.18645        3.48280       -7.70471
C          8.07539        2.17647       -6.88291
C          6.69740        1.87082       -6.28437
C          7.31907        3.44074       -8.97397
H          9.48312        8.80425        5.46214
H         10.79220        7.65057        5.14501
H          9.21863        7.07068        5.72377
H          9.70533        8.43112        2.99215
H          8.14241        7.85751        3.56790
H          9.02787        5.50473        3.64565
H         10.59573        6.07236        3.07412
H          9.53594        6.88978        0.94222
H          7.95055        6.35076        1.51579
H          8.76771        3.97784        1.58208
H         10.36447        4.51626        0.99178
H          8.50051        2.66991       -0.40878
H         10.03080        3.24396       -1.12024
H          7.18734        3.69637       -2.24401
H          8.39469        2.56915       -2.87329
H          9.94102        4.53676       -3.29594
H          8.86291        6.30566       -1.95970
H          7.32420        6.10079       -2.85514
H          9.89098        7.00001       -4.04748
H          8.56945        7.93883       -3.75111
H          8.70559        7.31377       -6.08752
H          7.21703        6.69506       -5.27795
H         10.44001        4.07590       -6.42424
H         10.82356        5.12810       -5.05607
H         11.92070        4.98626       -7.98261
H         12.64482        5.94317       -6.66093
H         11.35631        7.11241       -9.21649
H         13.10056        7.01085       -8.88799
H         12.07754        8.07426       -7.89874
H          7.92114        5.61246       -7.64729
H          6.80583        4.74606       -6.58936
H          9.23367        3.55616       -8.04675
H          8.82071        2.18850       -6.07297
H          8.36933        1.34997       -7.54942
H          6.38959        2.62905       -5.55095
H          6.71415        0.90390       -5.76392
H          5.91568        1.80678       -7.05410
H          6.24502        3.44669       -8.73832
H          7.52531        2.53273       -9.55646
H          7.51869        4.30597       -9.62171
