57

O          4.27172        2.43007       -1.93556
C          3.41682        2.73125       -0.82879
C          2.23608        1.73194       -0.80584
N          1.65579        1.58824       -2.21661
C          1.38719        2.65474       -3.01909
N          1.24569        2.47362       -4.33475
N          1.22312        3.89897       -2.52033
C          1.44300        5.12433       -3.28963
C          1.31333        6.32071       -2.35808
O          2.18701        6.07535       -1.25769
C          2.14758        7.06088       -0.24109
C          2.75973        6.44883        1.01477
F          4.02537        6.01147        0.80246
F          2.78714        7.35971        2.00783
F          2.03577        5.37737        1.44584
C          1.24970        0.26376       -2.72534
C          2.21928       -0.47740       -3.73516
N          3.63926       -0.17567       -3.60304
N          1.90651       -1.88852       -3.59051
N          1.85290       -0.04265       -5.10724
C          2.71439        0.33043       -0.31477
C          3.59999        0.27907        0.95932
C          3.19481       -0.92593        1.82195
C          5.09731        0.20624        0.61896
C          1.15328        2.21306        0.18315
H          5.05892        2.99302       -1.87696
H          3.08097        3.77612       -0.88103
H          3.94741        2.62901        0.12983
H          1.48530        1.53845       -4.80120
H          0.85477        3.22356       -4.89080
H          1.31425        4.01440       -1.51742
H          0.69085        5.23663       -4.08654
H          2.44300        5.10801       -3.75330
H          0.27298        6.43217       -1.99920
H          1.59483        7.23920       -2.90074
H          1.11411        7.36253        0.00204
H          2.73033        7.95722       -0.51483
H          0.27125        0.37091       -3.21369
H          1.09052       -0.38998       -1.86719
H          3.83191        0.78319       -3.29978
H          4.09109       -0.80827       -2.94758
H          2.07971       -2.22852       -2.64312
H          2.46407       -2.45183       -4.23517
H          2.63939       -0.24791       -5.72625
H          1.03325       -0.56544       -5.42605
H          3.25991       -0.17347       -1.12207
H          1.81382       -0.26728       -0.11286
H          3.42633        1.18497        1.56581
H          3.32447       -1.86868        1.26794
H          2.14402       -0.86144        2.13814
H          3.81476       -0.99026        2.72618
H          5.32678       -0.73927        0.10328
H          5.70786        0.23768        1.53152
H          5.42878        1.02061       -0.03788
H          0.84664        3.25996        0.05589
H          1.52172        2.12974        1.21365
H          0.25780        1.58514        0.09290
