60

O          0.98707       -1.05840       -0.37526
C          2.23265       -0.78034        0.26485
C          2.79628        0.58226       -0.21017
C          2.57551        0.67064       -1.77064
C          2.94168       -0.61386       -2.57123
C          3.67124       -0.15723       -3.85954
N          3.89599        1.27744       -3.56640
C          3.30949        1.75082       -2.50591
C          3.31925        3.21259       -2.25047
C          1.99022        3.87034       -2.75748
O          1.16850        3.18378       -3.34529
C          1.81247        5.31592       -2.49936
C          2.79004        6.10794       -1.86738
C          2.55745        7.46383       -1.64771
C          1.34834        8.03874       -2.05247
C          0.37024        7.25810       -2.68107
C          0.59861        5.90510       -2.90641
C          2.92568       -0.32435       -5.16946
C          3.41092       -1.23743       -6.11489
C          2.72062       -1.44587       -7.31082
C          1.54897       -0.73251       -7.57453
C          1.06718        0.18778       -6.63846
C          1.74829        0.39292       -5.43780
C          2.15161        1.77242        0.56713
C          0.67515        2.19150        0.35133
C         -0.31507        1.38769        1.20730
C          0.51961        3.68960        0.66102
C          4.30200        0.57526        0.12453
H          0.64834       -1.90306       -0.04123
H          2.96169       -1.58078        0.04500
H          2.11905       -0.73339        1.36226
H          1.50500        0.90446       -1.91569
H          2.04616       -1.19360       -2.80793
H          3.60938       -1.25879       -1.98830
H          4.65737       -0.63482       -3.95595
H          4.36248        1.87911       -4.24784
H          4.16174        3.69200       -2.77181
H          3.42997        3.42096       -1.17961
H          3.73842        5.67888       -1.54222
H          3.31716        8.07409       -1.15965
H          1.16793        9.09978       -1.87682
H         -0.57061        7.70988       -2.99541
H         -0.14986        5.28024       -3.39296
H          4.32924       -1.79351       -5.91360
H          3.10163       -2.16269       -8.03856
H          1.01285       -0.89012       -8.51069
H          0.15591        0.75031       -6.84302
H          1.36014        1.12061       -4.72188
H          2.78380        2.65888        0.39908
H          2.29574        1.55231        1.63872
H          0.40317        2.04258       -0.70862
H         -0.08631        1.50739        2.27747
H         -0.29774        0.32083        0.96290
H         -1.34097        1.74783        1.04911
H          0.75918        3.89741        1.71540
H         -0.51322        4.02084        0.48732
H          1.17670        4.31741        0.04341
H          4.85149       -0.19287       -0.43810
H          4.45790        0.36779        1.19236
H          4.76950        1.54879       -0.08139
