60

C          4.52114       -5.30320        1.74067
C          5.29605       -4.27575        2.54284
O          5.60835       -3.09530        1.73867
P          7.04726       -2.91825        1.02934
O          8.04007       -3.95734        1.40432
O          6.74386       -2.72118       -0.53021
C          6.43502       -3.86686       -1.38447
C          6.56722       -3.42844       -2.82768
C          7.54180       -1.21675        1.45390
C          7.95437       -1.11377        2.92807
C          8.70684        0.18205        3.24970
C          9.08992        0.30974        4.72644
C          9.86965        1.58147        5.09888
N         11.31376        1.25306        5.14417
C         11.58538       -0.02934        5.28665
S         10.22481       -1.07299        5.23779
C         12.95487       -0.58676        5.50813
C         13.12564       -1.11980        6.94908
C         14.57364       -1.52294        7.22275
C         14.83462       -1.90784        8.71732
Br        13.75418       -3.42516        9.31332
F         16.13491       -2.17976        8.90475
F         14.52053       -0.82691        9.48159
Br        15.15013       -2.98744        6.05436
F         15.39157       -0.43430        6.97478
C         12.30253        2.35825        5.19356
C         13.00557        2.63881        3.86038
C         12.07133        3.04148        2.69911
C         11.19334        4.15876        3.02358
C         10.47404        5.08470        3.32586
H          4.22930       -6.13579        2.39693
H          5.13414       -5.71656        0.92847
H          3.60793       -4.86782        1.31358
H          6.23588       -4.69720        2.92665
H          4.69867       -3.89433        3.38239
H          5.40834       -4.19367       -1.15758
H          7.13219       -4.68291       -1.14191
H          5.89581       -2.58775       -3.04693
H          6.30077       -4.26314       -3.49042
H          7.59781       -3.12524       -3.05420
H          6.72425       -0.52502        1.20514
H          8.38936       -0.98246        0.79157
H          8.59302       -1.97974        3.17174
H          7.05990       -1.18883        3.56775
H          8.07823        1.05655        3.00737
H          9.61026        0.25882        2.62119
H          8.19747        0.21448        5.35944
H          9.59051        1.95541        6.09739
H          9.70495        2.39066        4.37312
H         13.71266        0.17801        5.30233
H         13.12086       -1.41261        4.79961
H         12.47283       -1.98231        7.13223
H         12.86557       -0.33878        7.68060
H         13.03947        2.13104        5.97431
H         11.74290        3.24797        5.51333
H         13.60116        1.76770        3.54958
H         13.71606        3.45570        4.05548
H         11.46636        2.17612        2.37800
H         12.69238        3.30376        1.82813
H          9.84897        5.92453        3.55184
