66

Br         1.26444        0.57765        2.47957
C          3.07566        0.01786        1.98505
C          3.06945       -0.75099        0.67026
C          4.46765       -1.23303        0.24718
C          5.19440       -2.23330        1.20789
C          4.52538       -3.57586        1.17777
N          5.23887       -4.41100        0.47054
C          6.51286       -3.87028       -0.03710
C          6.66380       -2.58220        0.79384
C          7.44565       -1.48614        0.05374
O          7.46703       -0.26376        0.76081
C          8.54458       -0.11830        1.70553
C          8.48739        1.28832        2.27700
C          9.58869        1.56092        3.30727
C          9.51663        2.98091        3.87371
C          3.25379       -3.98427        1.82603
C          3.49780       -5.03403        2.94977
C          2.19971       -5.53060        3.61837
C          1.28931       -6.26306        2.61647
C         -0.04327       -6.78441        3.19637
C         -0.97991       -7.25161        2.11723
C         -1.35448       -8.51332        1.83151
C         -0.89322       -9.73680        2.57876
C         -2.30912       -8.79400        0.70043
C          2.57949       -6.41033        4.81861
H          3.42934       -0.57467        2.83713
H          3.67050        0.93611        1.92068
H          2.69499       -0.08770       -0.12305
H          2.34935       -1.58032        0.72301
H          5.13763       -0.36413        0.17807
H          4.40507       -1.67134       -0.76116
H          5.15890       -1.81778        2.22481
H          4.93327       -5.36484        0.27146
H          6.41900       -3.68156       -1.11940
H          7.31566       -4.60199        0.11702
H          7.20493       -2.83816        1.71828
H          6.97193       -1.28237       -0.92067
H          8.47064       -1.84675       -0.15380
H          9.50602       -0.29595        1.18773
H          8.45416       -0.86903        2.51518
H          7.49885        1.44495        2.74004
H          8.56299        2.00815        1.44639
H         10.57494        1.39859        2.84160
H          9.51387        0.83035        4.13036
H          9.61969        3.73167        3.07684
H         10.31529        3.15985        4.60511
H          8.55565        3.16064        4.37753
H          2.58453       -4.42077        1.06620
H          2.75126       -3.10594        2.24726
H          4.15661       -4.59026        3.71276
H          4.03722       -5.90125        2.53116
H          1.65403       -4.64788        3.99967
H          1.84082       -7.11357        2.17665
H          1.03781       -5.59132        1.77759
H         -0.52273       -5.96486        3.76107
H          0.15367       -7.58614        3.92082
H         -1.39310       -6.45292        1.48951
H         -0.19746       -9.51816        3.39724
H         -0.39888      -10.44218        1.89125
H         -1.75524      -10.27692        3.00192
H         -2.62258       -7.87506        0.18860
H         -3.21184       -9.30832        1.06797
H         -1.85275       -9.46760       -0.04318
H          3.09383       -7.32667        4.49005
H          1.69036       -6.71222        5.38539
H          3.24564       -5.87699        5.51112
