45

N          2.06007        0.29698        1.35298
C          2.84207        0.24095        0.26054
N          3.40470        1.34422       -0.23891
C          4.24407        1.28781       -1.44148
C          5.09436       -0.00656       -1.46132
C          4.03926       -1.13829       -1.41822
N          3.05875       -0.93320       -0.35175
I          4.83435       -3.16169       -1.18023
C          5.82119       -0.11765       -2.82491
C          6.93039        0.90125       -3.12234
C          7.61861        0.65216       -4.47606
C          6.70477        0.93501       -5.67325
S          7.55652        0.50020       -7.21270
O          8.65461        1.41095       -7.42844
O          7.73523       -0.93247       -7.25804
Cl         6.06293        0.98225       -8.58715
C          6.06827       -0.08580       -0.24256
C          6.61926        1.25136        0.27035
C          7.63205        1.06778        1.40453
S          7.97413        2.68900        2.12174
O          8.72097        3.48540        1.17083
O          6.74031        3.16737        2.70023
O          8.95468        2.29586        3.34656
H          1.74928        1.18293        1.73250
H          1.74466       -0.54478        1.81862
H          3.38993        2.19410        0.31549
H          4.88165        2.17803       -1.43320
H          3.60923        1.34500       -2.33975
H          3.52028       -1.21037       -2.38254
H          2.51130       -1.73998       -0.06568
H          5.05453       -0.07362       -3.61687
H          6.25701       -1.12829       -2.88429
H          7.71156        0.83889       -2.35111
H          6.54501        1.93412       -3.09293
H          7.97175       -0.38971       -4.51906
H          8.50802        1.29334       -4.54617
H          6.44017        1.99734       -5.76285
H          5.79136        0.32586       -5.68204
H          6.89897       -0.74941       -0.52554
H          5.56874       -0.59534        0.59734
H          5.80195        1.87318        0.66366
H          7.09723        1.82689       -0.53381
H          8.58787        0.65063        1.06028
H          7.24167        0.44835        2.22433
H          9.84605        2.63567        3.13445
