37

C          2.70058        1.72273        0.37572
C          2.43486        1.10207       -0.98108
O          3.02773       -0.24574       -1.06926
C          4.28812       -0.32103       -1.50849
O          4.99720        0.61279       -1.83006
C          4.73098       -1.78991       -1.60039
C          6.25793       -1.85046       -1.67649
C          6.95476       -1.82308       -0.30973
C          6.78765       -3.12697        0.48443
C          7.23813       -4.36310       -0.32770
C          6.51602       -4.37747       -1.68625
N          6.76869       -3.08620       -2.43790
C          6.32027       -3.15922       -3.86515
C          8.74138       -4.44480       -0.49260
C          9.45595       -5.56006       -0.31764
H          2.18013        2.68864        0.43681
H          3.77138        1.90833        0.52790
H          2.32368        1.08405        1.18500
H          2.84278        1.70755       -1.79947
H          1.36686        0.92040       -1.14839
H          4.24668       -2.19161       -2.50332
H          4.31757       -2.34620       -0.74974
H          6.59025       -0.99111       -2.27792
H          6.55066       -0.96906        0.25106
H          8.02306       -1.59642       -0.45679
H          5.73714       -3.25880        0.78590
H          7.36936       -3.06713        1.41360
H          6.90598       -5.27570        0.19129
H          5.42673       -4.46682       -1.57573
H          6.87798       -5.19413       -2.32392
H          7.79358       -2.97354       -2.45874
H          5.26246       -3.43566       -3.90284
H          6.91424       -3.92461       -4.37683
H          6.47306       -2.18266       -4.33819
H          9.27655       -3.51980       -0.74045
H          8.98766       -6.50511       -0.03257
H         10.53919       -5.56694       -0.43815
