43

C          7.62585        0.01057        1.92592
C          8.01989        1.28668        1.21790
O          6.84996        2.15252        1.16028
C          7.12199        3.40704        0.60086
P          5.49165        4.19909        0.35588
C          4.38151        3.93811        1.75604
C          2.98362        4.51985        1.46600
C          1.95499        4.14900        2.54419
P          0.27362        4.64615        2.02276
O         -0.02379        4.26479        0.62007
O         -0.72226        4.06192        3.13332
C         -1.51443        2.85358        2.88901
C         -2.79185        2.95294        3.69523
O          0.31703        6.20683        2.37573
C         -0.84169        7.05069        2.06389
C         -0.51846        8.46598        2.49112
N          5.75706        5.75290       -0.13877
H          8.49117       -0.66373        1.97325
H          6.82100       -0.50794        1.38898
H          7.29542        0.21330        2.95269
H          8.36334        1.09431        0.18634
H          8.82279        1.81888        1.75770
H          7.60717        3.36295       -0.39483
H          7.74256        4.06248        1.24852
H          4.87863        3.59851       -0.76480
H          4.85029        4.37914        2.65091
H          4.35854        2.84575        1.90888
H          2.61031        4.14779        0.49739
H          3.04612        5.61544        1.38050
H          2.18851        4.60377        3.51722
H          1.91643        3.05731        2.68383
H         -0.90792        1.98991        3.20439
H         -1.70832        2.77560        1.81043
H         -2.57748        3.06784        4.76573
H         -3.38417        2.03749        3.56026
H         -3.40029        3.80529        3.36557
H         -1.71156        6.65432        2.60887
H         -1.03853        6.98050        0.98408
H         -0.31965        8.51761        3.56955
H         -1.37248        9.12062        2.26908
H          0.35626        8.85369        1.95218
H          6.21305        6.40468        0.49534
H          5.06079        6.19858       -0.73136
