40

O          3.05121       -0.29068       -3.50985
C          2.34858        0.05015       -2.30611
C          2.68624       -0.98819       -1.24374
C          4.17518       -1.07306       -0.88048
C          5.06393       -1.65677       -1.98524
N          6.31687       -2.16163       -1.26696
C          5.97574       -2.27902        0.21433
C          4.46179       -2.01902        0.29877
C          6.39504       -3.69159        0.63887
O          6.69112       -4.53554       -0.19605
O          6.36503       -3.83909        1.95144
C          6.71497       -5.17682        2.49257
C          5.50827       -6.08973        2.51881
C          7.55612       -1.35469       -1.57235
C          8.82789       -1.95421       -0.97816
C         10.04113       -1.10199       -1.33166
F          9.86842        0.18603       -0.80487
H          2.72668        0.27193       -4.22946
H          1.25903        0.05014       -2.47364
H          2.63838        1.05932       -1.95852
H          2.33517       -1.97883       -1.57817
H          2.11714       -0.73690       -0.33546
H          4.53955       -0.06237       -0.62552
H          5.35227       -0.94587       -2.76357
H          4.58793       -2.52438       -2.46142
H          6.50774       -3.15398       -1.53067
H          6.54358       -1.51966        0.76663
H          4.19003       -1.59506        1.27237
H          3.90238       -2.95960        0.17139
H          7.08267       -4.94317        3.49764
H          7.53037       -5.57985        1.87969
H          4.68862       -5.65180        3.10243
H          5.79455       -7.03627        2.99818
H          5.15422       -6.32221        1.50674
H          7.38054       -0.33587       -1.20161
H          7.62624       -1.31392       -2.66841
H          8.99395       -2.97341       -1.36127
H          8.76311       -2.02058        0.11857
H         10.17191       -1.00097       -2.42083
H         10.95608       -1.52783       -0.89652
