65

C          0.51617        2.13707       -1.36574
C          1.80275        1.32847       -1.18273
C          2.58933        1.73691        0.06809
C          3.88004        0.92792        0.23671
N          4.66272        1.31770        1.41297
C          5.57996        2.31753        1.36861
O          5.90623        2.91191        0.34562
C          6.23308        2.68308        2.73054
C          7.67680        3.02456        2.49864
C          8.04411        4.34389        2.38321
N          9.32961        4.68321        2.04777
C         10.28653        3.78237        1.79256
C          9.99583        2.41702        1.88307
C          8.66560        2.01480        2.26314
C          8.40781        0.63432        2.35614
C          9.37837       -0.32170        2.07812
C          9.04600       -1.77039        2.31583
C          9.45191       -2.20870        3.74301
C          9.01477       -3.64471        4.04730
C          9.44863       -4.08370        5.44840
S          8.73587       -5.69125        5.84698
O          7.31643       -5.53406        6.09842
O          9.23359       -6.65444        4.89811
O          9.46195       -5.99657        7.26991
C         10.68417        0.08859        1.64091
C         10.97251        1.43920        1.57241
C         11.72928       -0.90491        1.21077
C         11.57567       -1.35685       -0.26030
C         11.61723       -0.21207       -1.28084
N         12.80373        0.62868       -1.09207
O         12.65702       -2.27514       -0.45972
H         -0.02572        1.82400       -2.26783
H          0.73064        3.21135       -1.46314
H         -0.16249        2.00970       -0.50972
H          2.44595        1.45067       -2.07011
H          1.55959        0.25382       -1.12853
H          1.95764        1.61016        0.96388
H          2.84934        2.80632        0.01198
H          4.53220        1.06666       -0.63649
H          3.65986       -0.14630        0.32515
H          4.38390        0.95284        2.31781
H          6.12294        1.87761        3.47010
H          5.69583        3.55778        3.12441
H          7.35419        5.17264        2.52100
H          9.55828        5.67296        1.97049
H         11.26849        4.16311        1.51495
H          7.41618        0.29159        2.65185
H          9.54195       -2.41980        1.58119
H          7.96309       -1.91857        2.19028
H          8.99765       -1.51717        4.47139
H         10.54279       -2.10861        3.86416
H          9.43730       -4.33792        3.30451
H          7.91890       -3.71914        3.96352
H          9.10006       -3.39412        6.23017
H         10.53827       -4.20002        5.53176
H          8.76988       -5.96694        7.95787
H         11.95955        1.75107        1.22412
H         11.71021       -1.80938        1.83235
H         12.72590       -0.45893        1.31969
H         10.60565       -1.87602       -0.38370
H         10.71574        0.41056       -1.15924
H         11.54156       -0.67020       -2.28788
H         12.87264        1.31705       -1.84141
H         13.64336        0.04876       -1.15705
H         12.53178       -2.72204       -1.31229
