131

C          1.89748        5.59762        2.33171
C          3.29152        5.00966        2.09740
C          3.89179        5.39119        0.73958
C          5.28732        4.80895        0.49327
C          5.88087        5.19532       -0.86519
C          7.27391        4.61247       -1.12490
C          7.85214        5.00659       -2.48777
C          9.23809        4.41949       -2.77490
C          9.78880        4.81788       -4.14816
C         11.17348        4.24238       -4.46371
C         11.69856        4.65720       -5.84264
C         13.08012        4.08932       -6.18515
C         13.59901        4.53795       -7.55633
C         14.98171        3.97818       -7.90895
C         15.52533        4.47924       -9.25248
C         16.90923        3.91604       -9.59728
C         17.50100        4.47125      -10.89894
C         18.88598        3.89776      -11.22331
C         19.53873        4.51739      -12.46717
C         20.93446        3.94345      -12.74821
C         21.67362        4.55928      -13.93888
N         22.01616        5.99006      -13.68629
C         23.22900        6.31084      -13.98595
C         23.98292        5.18526      -14.57512
C         23.07241        3.95832      -14.23290
C         23.05464        2.80404      -15.23922
C         24.37063        2.00616      -15.30192
C         24.78829        1.30832      -13.99701
C         23.76160        0.30817      -13.45141
C         24.28019       -0.51780      -12.27012
C         23.27158       -1.55354      -11.76245
C         23.81055       -2.43180      -10.62859
C         22.81796       -3.49782      -10.15319
C         23.37613       -4.40978       -9.05559
C         22.39350       -5.49078       -8.59416
C         22.96100       -6.41641       -7.51177
C         21.98112       -7.50537       -7.06739
C         24.27704        5.48493      -16.07971
C         25.18848        6.71734      -16.27239
O         26.18270        6.84163      -15.26878
C         27.27386        5.91158      -15.38799
C         28.17114        6.06585      -14.17068
C         29.27767        5.00691      -14.11231
C         30.15896        5.12298      -12.86257
C         31.20784        4.01338      -12.76094
H          1.49487        5.30606        3.31170
H          1.18593        5.25510        1.56534
H          1.91642        6.69722        2.29423
H          3.24616        3.91009        2.17707
H          3.97171        5.34125        2.90036
H          3.93636        6.49199        0.65890
H          3.21101        5.05949       -0.06460
H          5.24229        3.70821        0.57200
H          5.96835        5.14009        1.29718
H          5.92745        6.29619       -0.94167
H          5.19576        4.86833       -1.66741
H          7.22840        3.51142       -1.05169
H          7.96263        4.93893       -0.32570
H          7.90355        6.10781       -2.55535
H          7.15347        4.69054       -3.28261
H          9.19064        3.31838       -2.70437
H          9.94335        4.74158       -1.98843
H          9.83051        5.91959       -4.21552
H          9.07708        4.49750       -4.92962
H         11.13540        3.14043       -4.40152
H         11.88989        4.56346       -3.68694
H         11.73590        5.75967       -5.89811
H         10.97487        4.34303       -6.61540
H         13.04188        2.98626       -6.14975
H         13.80253        4.39073       -5.40607
H         13.63542        5.64143       -7.58502
H         12.87505        4.24107       -8.33547
H         14.93773        2.87494       -7.91968
H         15.69558        4.24305       -7.10904
H         15.57430        5.58240       -9.23391
H         14.81353        4.22234      -10.05639
H         16.84935        2.81563       -9.66269
H         17.60422        4.13083       -8.76641
H         17.56963        5.57123      -10.82402
H         16.81216        4.26681      -11.73674
H         18.80946        2.80574      -11.36200
H         19.55296        4.04651      -10.35637
H         19.59137        5.61275      -12.31605
H         18.89121        4.36397      -13.34703
H         20.85373        2.86357      -12.95253
H         21.57507        4.03600      -11.85471
H         21.02290        4.55048      -14.83224
H         21.33324        6.65162      -13.31030
H         23.59616        7.33003      -13.84122
H         24.96445        5.12199      -14.08077
H         23.44177        3.56678      -13.27042
H         22.80000        3.18237      -16.24157
H         22.23542        2.12119      -14.96543
H         25.19406        2.66085      -15.63335
H         24.26220        1.24745      -16.09269
H         25.03064        2.05340      -13.21787
H         25.73525        0.77915      -14.18876
H         23.45797       -0.37421      -14.26491
H         22.84010        0.83308      -13.14154
H         24.56588        0.15689      -11.44369
H         25.20842       -1.03290      -12.57227
H         22.96410       -2.19908      -12.60400
H         22.35284       -1.04042      -11.42583
H         24.10155       -1.79393       -9.77539
H         24.73907       -2.92541      -10.96533
H         22.50971       -4.11544      -11.01532
H         21.89734       -3.00730       -9.79022
H         23.67854       -3.79621       -8.18848
H         24.30088       -4.89086       -9.42020
H         22.08384       -6.09684       -9.46433
H         21.47156       -5.01236       -8.21811
H         23.26109       -5.81158       -6.63896
H         23.88735       -6.88495       -7.88560
H         21.05611       -7.06968       -6.66046
H         22.41684       -8.14560       -6.28809
H         21.69672       -8.15470       -7.90923
H         23.34339        5.63366      -16.64284
H         24.75190        4.58471      -16.49035
H         24.60095        7.64697      -16.21788
H         25.63646        6.67913      -17.28189
H         27.82281        6.11024      -16.32718
H         26.89463        4.87094      -15.44439
H         27.54401        5.99375      -13.26536
H         28.60461        7.07821      -14.16734
H         29.91068        5.07779      -15.01334
H         28.82229        4.00063      -14.14029
H         29.51627        5.10512      -11.96569
H         30.65566        6.10715      -12.85811
H         30.73603        3.02017      -12.71942
H         31.82264        4.12570      -11.85814
H         31.88587        4.02122      -13.62680
