59

C          2.47765       -1.57893       -0.19891
O          2.26098       -0.16144       -0.06305
C          3.24110        0.68868       -0.46632
C          4.49253        0.29397       -0.95750
C          5.42820        1.25759       -1.33604
C          5.14500        2.62305       -1.23428
C          3.90115        3.02579       -0.75917
C          2.93721        2.07353       -0.37988
C          1.63276        2.50076        0.11567
N          1.06248        2.16962        1.27999
N         -0.15069        2.74216        1.46407
C         -0.36827        3.46438        0.37611
N          0.73086        3.32979       -0.47803
C          0.83796        3.83387       -1.85499
C          0.00297        2.96412       -2.80301
C          0.10012        3.47426       -4.23378
C         -0.63006        2.60976       -5.32830
C         -2.16345        2.25871       -5.16427
C         -3.26805        3.37950       -5.04123
C         -3.49219        4.45212       -6.18017
C         -3.84729        3.94622       -7.62874
F         -4.85787        3.06153       -7.59211
F         -4.21733        5.00567       -8.36383
F         -2.77842        3.37170       -8.20721
F         -4.53310        5.21092       -5.75058
F         -2.39096        5.23841       -6.26727
F         -4.43660        2.72063       -4.85487
F         -3.00306        4.08833       -3.89869
F         -2.49244        1.46010       -6.20420
F         -2.27784        1.51997       -4.01358
F         -0.44578        3.20686       -6.52609
F          0.00342        1.39848       -5.34601
F         -0.35848        4.76339       -4.31291
F          1.41931        3.50339       -4.61852
Si        -2.04937        4.42299        0.19209
C         -1.82556        5.88575       -0.96294
C         -3.28317        3.16851       -0.46028
C         -2.47019        4.97271        1.92903
H          1.56146       -2.04773        0.17258
H          3.33269       -1.90935        0.40874
H          2.63194       -1.85275       -1.25276
H          4.74226       -0.76181       -1.04289
H          6.39905        0.93174       -1.71021
H          5.89016        3.36594       -1.51351
H          3.67780        4.08769       -0.64661
H          1.45155        1.54888        1.98550
H          1.89407        3.81124       -2.13980
H          0.50405        4.87650       -1.86188
H         -1.04963        2.96479       -2.49852
H          0.35743        1.92436       -2.77844
H         -1.68573        5.60909       -2.01515
H         -1.00037        6.54057       -0.65030
H         -2.74599        6.48688       -0.91385
H         -3.02758        2.77606       -1.45240
H         -4.26891        3.64889       -0.54471
H         -3.37996        2.32255        0.23324
H         -1.72690        5.67910        2.32224
H         -2.53297        4.11942        2.61641
H         -3.44636        5.47867        1.92162
