104

C          0.43637        0.09944        0.59641
C          1.96522        0.18383        0.59836
C          2.62175       -0.72021       -0.45092
C          4.15192       -0.64118       -0.47217
C          4.79065       -1.53712       -1.53817
C          6.32027       -1.45829       -1.59021
C          6.92877       -2.33343       -2.69047
C          8.45722       -2.26789       -2.78017
C          9.02048       -3.11103       -3.92838
C         10.54794       -3.08804       -4.05090
C         11.04965       -3.88686       -5.25804
C         12.57387       -3.94869       -5.40591
C         13.00132       -4.70807       -6.66593
C         14.51346       -4.89898       -6.82678
C         14.86071       -5.67685       -8.10063
C         16.33959       -6.04896       -8.24766
C         16.59215       -6.91453       -9.48962
C         18.01960       -7.47866       -9.53241
C         18.49409       -8.36729      -10.69863
N         17.67582       -9.68138      -10.70570
C         16.34498       -9.68620      -11.43674
C         16.50730       -9.16768      -12.85538
C         17.25202       -7.82862      -12.88896
C         18.62017       -7.81261      -12.15588
C         19.72107       -8.61241      -12.93140
C         19.78845      -10.14424      -12.88577
O         20.91244      -10.53102      -13.63252
C         21.06790      -11.95698      -13.72059
C         22.30606      -12.25959      -14.53907
C         19.11891       -6.34423      -12.04757
C         19.43744       -5.62192      -13.36356
O         19.89108       -4.32698      -13.02230
Si        20.07561       -3.08117      -14.15161
C         21.11070       -3.69281      -15.59761
C         18.37554       -2.54468      -14.75197
C         20.93394       -1.71634      -13.20621
H         -0.00677        0.75705        1.35694
H          0.09291       -0.92539        0.80282
H          0.02195        0.39428       -0.37943
H          2.34872       -0.08187        1.59816
H          2.27751        1.22758        0.42400
H          2.23082       -0.45782       -1.45027
H          2.31262       -1.76589       -0.27407
H          4.54727       -0.91374        0.52228
H          4.46085        0.40535       -0.64249
H          4.38172       -1.26784       -2.52825
H          4.48627       -2.58438       -1.36378
H          6.73779       -1.75208       -0.61110
H          6.62704       -0.40905       -1.74651
H          6.49819       -2.03773       -3.66370
H          6.61981       -3.38215       -2.53371
H          8.89781       -2.60193       -1.82443
H          8.77305       -1.21758       -2.90806
H          8.57836       -2.76201       -4.87860
H          8.68443       -4.15648       -3.80983
H         10.99872       -3.48917       -3.12618
H         10.89704       -2.04364       -4.13016
H         10.61548       -3.45536       -6.17748
H         10.65508       -4.91686       -5.19775
H         13.01120       -4.43288       -4.51527
H         12.98857       -2.92608       -5.43066
H         12.60422       -4.18504       -7.55378
H         12.51812       -5.70158       -6.66478
H         14.90957       -5.43805       -5.94852
H         15.01944       -3.91860       -6.83682
H         14.53788       -5.09662       -8.98261
H         14.26195       -6.60579       -8.11785
H         16.66733       -6.59959       -7.34857
H         16.96285       -5.14036       -8.29336
H         16.37373       -6.32871      -10.39592
H         15.85309       -7.73285       -9.46761
H         18.19018       -8.05998       -8.60722
H         18.74007       -6.65078       -9.46769
H         19.49874       -8.71385      -10.40646
H         17.52170       -9.95245       -9.72592
H         18.27829      -10.40924      -11.12070
H         15.66432       -9.05598      -10.85555
H         15.97813      -10.72064      -11.40160
H         15.49975       -9.04967      -13.27874
H         17.00934       -9.91929      -13.48057
H         16.60726       -7.04928      -12.45499
H         17.41205       -7.54169      -13.93659
H         20.70402       -8.26101      -12.58039
H         19.66226       -8.33631      -13.99362
H         18.87707      -10.62438      -13.29943
H         19.91769      -10.51838      -11.83592
H         20.16321      -12.39352      -14.18726
H         21.15458      -12.37791      -12.69910
H         22.21745      -11.84317      -15.55075
H         22.44129      -13.34587      -14.62550
H         23.20214      -11.83824      -14.06535
H         20.03540       -6.31213      -11.43615
H         18.36838       -5.73287      -11.52578
H         18.53601       -5.57355      -14.00435
H         20.21437       -6.16148      -13.93394
H         20.61078       -4.50274      -16.14837
H         22.09013       -4.06062      -15.26114
H         21.28835       -2.87633      -16.31219
H         17.84184       -3.35889      -15.26358
H         18.46370       -1.71544      -15.46864
H         17.75266       -2.19955      -13.91496
H         21.91850       -2.04315      -12.84521
H         20.33882       -1.39948      -12.33889
H         21.08425       -0.83841      -13.85032
