81

C          4.12620       -4.15132       -5.61942
C          5.18316       -3.52167       -4.70898
C          5.59663       -2.11012       -5.14003
C          6.63060       -1.46627       -4.21145
C          7.05079       -0.05553       -4.63610
C          8.04215        0.59901       -3.66879
C          8.45446        2.01765       -4.07442
C          9.38533        2.69053       -3.06070
C          9.74250        4.13656       -3.42501
C         10.55275        4.84375       -2.33256
C         10.95378        6.29317       -2.66111
C         11.66842        7.01188       -1.50721
C         10.65465        7.44621       -0.44144
N          9.62779        8.29881       -1.06292
C          9.25689        8.10243       -2.33180
N          8.34667        8.91771       -2.90989
C          7.39510        9.78537       -2.21021
C          5.95549        9.27184       -2.34209
C          4.95734       10.18380       -1.61722
C          3.52596        9.65894       -1.76088
S          2.39211       10.69867       -0.80161
O          2.67097       10.52589        0.60539
O          2.32299       12.00917       -1.40431
Cl         0.59264        9.72922       -1.20179
N          9.78310        7.09951       -3.05769
C         11.27376        8.19896        0.75742
C         11.62940        9.65447        0.45584
O         10.73260       10.38930       -0.02883
N         12.85529       10.14031        0.74042
C         13.96369        9.35713        1.31133
C         13.95159        9.31673        2.84004
C         13.09989       11.58164        0.52648
C         13.67436       11.88233       -0.85810
H          3.86140       -5.16469       -5.28811
H          4.48334       -4.22423       -6.65734
H          3.20188       -3.55441       -5.63035
H          6.07751       -4.16692       -4.68065
H          4.80455       -3.48728       -3.67326
H          4.69968       -1.46710       -5.18804
H          5.99661       -2.14507       -6.16881
H          7.52500       -2.11149       -4.15663
H          6.22345       -1.43008       -3.18553
H          6.15257        0.58166       -4.72154
H          7.49179       -0.09196       -5.64756
H          8.94282       -0.03335       -3.58199
H          7.59612        0.62737       -2.65892
H          7.54736        2.63624       -4.19799
H          8.94075        1.99262       -5.06512
H         10.31084        2.09960       -2.95462
H          8.90392        2.68024       -2.06718
H          8.79943        4.68339       -3.60502
H         10.30069        4.15297       -4.37782
H         11.48319        4.28428       -2.14261
H          9.97819        4.82468       -1.39126
H         11.62613        6.27979       -3.53462
H         12.20518        7.89672       -1.88452
H         12.41231        6.33024       -1.07297
H         10.16133        6.54976       -0.03168
H          9.72106        9.29230       -0.71628
H          8.20591        8.80237       -3.90855
H          7.48689       10.80448       -2.61500
H          7.68744        9.83637       -1.15430
H          5.90288        8.24987       -1.93297
H          5.68952        9.20078       -3.41047
H          5.01447       11.20582       -2.02187
H          5.21779       10.24536       -0.54943
H          3.40474        8.64408       -1.35880
H          3.16072        9.69201       -2.79632
H          9.31256        6.83826       -3.91743
H         12.11078        7.60516        1.13781
H         10.52722        8.24433        1.56537
H         14.89171        9.82113        0.94915
H         13.95293        8.34495        0.88664
H         13.97273       10.32933        3.26441
H         14.83288        8.77774        3.21177
H         13.05429        8.81114        3.22213
H         13.78743       11.91404        1.31685
H         12.14581       12.10230        0.66758
H         14.62634       11.35987       -1.02744
H         13.86369       12.95943       -0.95719
H         12.96776       11.58715       -1.64467
