95

C          0.67068       -0.08073        0.05723
C          2.19312       -0.23980        0.05256
C          2.82788        0.02543       -1.31695
C          4.35202       -0.12898       -1.33384
C          4.97849        0.15422       -2.70236
C          6.50504        0.02403       -2.73293
C          7.10531        0.35232       -4.10334
C          8.63420        0.27090       -4.16484
C          9.19104        0.64346       -5.54244
C         10.71875        0.59618       -5.64777
C         11.22646        0.98646       -7.03950
C         12.75056        0.95361       -7.19027
C         13.21534        1.30253       -8.60783
C         14.73401        1.23639       -8.79795
C         15.16848        1.44259      -10.25264
C         16.67850        1.27961      -10.46428
C         17.07629        1.27180      -11.94642
C         18.57112        1.10464      -12.21650
N         19.19173       -0.04906      -11.44783
C         18.63049       -1.40244      -11.82958
C         18.68740       -2.36299      -10.64089
C         18.39122       -3.80884      -11.05018
C         19.51279       -4.39041      -11.91225
O         20.52566       -3.78369      -12.18472
O         19.32797       -5.64780      -12.37569
C         20.71654       -0.02467      -11.50654
C         21.31096        0.88715      -10.44110
C         22.84349        0.94982      -10.52631
C         23.45851        1.80709       -9.41391
C         24.98517        1.90992       -9.49710
C         25.59420        2.75464       -8.37302
C         27.11859        2.89022       -8.46228
C         27.71535        3.72577       -7.32738
H          0.24765       -0.26892        1.05369
H          0.19327       -0.78200       -0.64357
H          0.37435        0.93576       -0.24236
H          2.45909       -1.25763        0.38504
H          2.63737        0.44464        0.79525
H          2.56148        1.04476       -1.64897
H          2.38319       -0.65773       -2.06247
H          4.62013       -1.15058       -1.01123
H          4.79509        0.54938       -0.58329
H          4.69760        1.17248       -3.02500
H          4.54035       -0.52823       -3.45214
H          6.79415       -1.00005       -2.43780
H          6.94396        0.69285       -1.97162
H          6.78822        1.36772       -4.40014
H          6.67560       -0.32761       -4.86032
H          8.96207       -0.74885       -3.89615
H          9.06799        0.93944       -3.40041
H          8.84380        1.65761       -5.80793
H          8.75586       -0.02929       -6.30267
H         11.07517       -0.41849       -5.39666
H         11.16125        1.26825       -4.89174
H         10.85955        1.99746       -7.28861
H         10.77630        0.31192       -7.78935
H         13.12365       -0.05083       -6.92189
H         13.20940        1.65011       -6.46700
H         12.85575        2.31071       -8.87620
H         12.73398        0.61167       -9.32252
H         15.09699        0.25122       -8.45192
H         15.22459        1.98395       -8.15114
H         14.85459        2.43928      -10.60457
H         14.63860        0.71488      -10.89198
H         16.97150        0.32807       -9.97954
H         17.22200        2.07773       -9.92890
H         16.78565        2.22526      -12.41397
H         16.49973        0.50127      -12.48169
H         19.12841        1.99838      -11.90585
H         18.78131        0.92004      -13.27867
H         18.93387        0.10598      -10.46124
H         19.23082       -1.76319      -12.67348
H         17.59677       -1.25371      -12.16293
H         17.96333       -2.04516       -9.87463
H         19.68816       -2.33830      -10.18366
H         17.43249       -3.88758      -11.59027
H         18.28546       -4.43307      -10.14901
H         18.47830       -6.01602      -12.07343
H         20.98093        0.29010      -12.52556
H         21.05569       -1.06133      -11.38033
H         21.01552        0.51585       -9.44339
H         20.90536        1.90868      -10.53184
H         23.13638        1.35385      -11.51013
H         23.25689       -0.07159      -10.47787
H         23.17311        1.38892       -8.43281
H         23.02289        2.82093       -9.45069
H         25.26968        2.33889      -10.47358
H         25.42284        0.89682       -9.47188
H         25.32432        2.31289       -7.39758
H         25.13895        3.76073       -8.38430
H         27.38579        3.34061       -9.43314
H         27.57381        1.88547       -8.46026
H         27.30151        4.74505       -7.32042
H         28.80606        3.81199       -7.42329
H         27.50342        3.27664       -6.34572
