64

C         10.92365       -3.69019       -6.74246
C         10.50318       -3.11784       -5.38663
C         10.90598       -1.65108       -5.19517
C         10.48486       -1.07235       -3.84036
C         10.87673        0.39692       -3.65249
C         10.44309        0.97196       -2.29877
C         10.83748        2.44468       -2.12139
C         10.37736        3.00520       -0.78889
O         10.80794        4.39399       -0.71055
C         10.36413        5.04462        0.44043
P         10.93347        6.78482        0.27956
C         10.04473        7.80880        1.58429
O         10.22925        7.55931        2.75123
O          9.27796        8.71007        0.99612
C          8.47782        9.62124        1.86998
C          9.26569       10.86825        2.22626
C          8.37372       11.88603        2.95795
C          9.14376       13.13532        3.39310
C         12.74682        7.00947        0.48216
O         13.30214        6.49042       -0.68825
C         14.75668        6.50224       -0.70161
C         15.21087        5.91450       -2.02484
C         16.73953        5.82450       -2.13528
C         17.19487        5.23266       -3.47195
H         10.61700       -4.73957       -6.84840
H         12.01520       -3.64898       -6.87358
H         10.47051       -3.12737       -7.57215
H         10.94432       -3.72370       -4.57718
H          9.41002       -3.21047       -5.27044
H         10.46475       -1.04396       -6.00532
H         12.00032       -1.55600       -5.30987
H         10.93149       -1.67588       -3.03078
H          9.39151       -1.17500       -3.72480
H         10.43327        1.00071       -4.46327
H         11.97041        0.50180       -3.76025
H         10.88647        0.36967       -1.48732
H          9.34934        0.86723       -2.19419
H         10.40198        3.05151       -2.93115
H         11.93132        2.55450       -2.19434
H         10.81547        2.44974        0.05995
H          9.27626        2.97069       -0.69514
H         10.77814        4.64461        1.38922
H          9.25800        5.07645        0.54050
H         10.60594        7.21594       -1.02611
H          8.17097        9.04679        2.75326
H          7.60587        9.84334        1.24356
H          9.66838       11.31953        1.30558
H         10.12211       10.59649        2.86368
H          7.91773       11.40693        3.83966
H          7.53930       12.17519        2.29842
H          9.95434       12.88351        4.09179
H          8.47871       13.84700        3.89860
H          9.59054       13.65207        2.53158
H         13.04889        6.48213        1.41022
H         12.93250        8.09447        0.63021
H         15.12433        5.90712        0.15398
H         15.10605        7.54356       -0.57695
H         14.81000        6.53053       -2.84552
H         14.76675        4.91197       -2.13462
H         17.13281        5.21214       -1.30703
H         17.17783        6.82821       -2.00857
H         16.80491        4.21411       -3.61234
H         18.28977        5.17970       -3.52829
H         16.84739        5.84183       -4.31885
