47

N          4.80893        1.60056        1.70342
C          3.89182        1.21281        0.62537
C          3.24259       -0.14158        0.93659
N          4.24082       -1.19726        1.17687
C          4.95194       -1.29476        2.31639
N          6.32060       -1.37748        2.40794
C          6.61182       -1.59595        3.73704
N          5.53359       -1.65093        4.46757
N          4.50061       -1.48348        3.57999
C          3.11780       -1.52502        4.06145
C          2.52910       -0.15484        4.34280
C          1.18635        0.09347        4.03091
C          0.62049        1.34417        4.29334
C          1.39558        2.35796        4.86109
C          2.73461        2.11231        5.18102
C          3.29952        0.85956        4.92903
C          7.28056       -0.94636        1.39225
C          7.32908       -1.86175        0.16621
O          6.32426       -2.29233       -0.38036
O          8.58319       -2.06602       -0.21589
C          8.80071       -2.83284       -1.45959
C          8.84255       -1.90961       -2.66730
C          9.18898       -2.68535       -3.94326
H          5.33956        2.43006        1.43749
H          4.28602        1.85312        2.54584
H          4.47126        1.13543       -0.30773
H          3.07615        1.93635        0.43903
H          2.61378       -0.46836        0.09866
H          2.59095       -0.04816        1.81458
H          4.79854       -1.49606        0.36221
H          7.62112       -1.71267        4.11891
H          3.15302       -2.14255        4.96965
H          2.52347       -2.06444        3.31017
H          0.57629       -0.69398        3.58231
H         -0.42660        1.52569        4.05012
H          0.95541        3.33484        5.06270
H          3.33925        2.89459        5.64105
H          4.33949        0.67093        5.20030
H          8.26642       -0.88135        1.86358
H          6.97994        0.06410        1.06442
H          8.00720       -3.58684       -1.53960
H          9.76498       -3.32587       -1.28682
H          9.58903       -1.12065       -2.48840
H          7.86533       -1.41535       -2.78109
H         10.17745       -3.16010       -3.87045
H          9.20953       -2.01084       -4.80816
H          8.45074       -3.47211       -4.15226
