54

F          2.67570        1.09979       -1.82099
C          2.20717        0.33114       -0.75681
C          2.68222        0.93193        0.56468
N          4.14892        0.99867        0.65193
C          4.90444        2.08916        0.64669
S          6.59092        1.74027        0.52094
C          6.27102       -0.02654        0.18668
C          4.89456       -0.28928        0.79373
C          4.92665       -0.71538        2.26926
C          5.48012       -2.13352        2.39302
O          5.69146       -2.85162        1.43280
O          5.67969       -2.44892        3.67756
C          6.23762       -3.78174        3.95307
C          7.75829       -3.73451        4.00211
C          8.34877       -5.10968        4.33083
C          4.45447        3.53303        0.74722
C          3.44122        3.79353        1.91677
C          3.54736        3.01067        3.24273
C          4.88177        3.18639        3.98322
C          2.37407        3.42770        4.14325
C          5.72185        4.42840        0.93207
O          5.28193        5.77086        1.06046
C          3.81249        3.95116       -0.60873
H          2.55937       -0.70045       -0.90730
H          1.10672        0.33653       -0.77370
H          2.30506        0.31143        1.39231
H          2.27333        1.93653        0.68953
H          7.05710       -0.63338        0.64701
H          6.29089       -0.17526       -0.90025
H          4.38441       -1.06340        0.20740
H          3.91522       -0.70812        2.70300
H          5.52782       -0.02581        2.88035
H          5.87553       -4.47430        3.18186
H          5.80568       -4.05132        4.92488
H          8.07032       -2.99445        4.75494
H          8.13841       -3.38895        3.02803
H          7.99414       -5.47982        5.30337
H          9.44383       -5.05889        4.37629
H          8.08149       -5.85526        3.56887
H          2.41968        3.67444        1.52546
H          3.53192        4.86892        2.13114
H          3.42536        1.93202        3.03750
H          5.09606        4.24931        4.16927
H          5.73569        2.76001        3.43770
H          4.84398        2.68304        4.95890
H          2.43990        4.49353        4.40771
H          2.37251        2.85289        5.07908
H          1.40515        3.26784        3.64869
H          6.37157        4.31546        0.04510
H          6.28832        4.11520        1.82544
H          6.05565        6.35438        1.06980
H          2.87450        3.42591       -0.81196
H          4.49834        3.76208       -1.44504
H          3.61217        5.02804       -0.56179
