86

C          1.34995        3.50511      -14.72510
C          2.84761        3.30488      -14.48050
C          3.19487        3.07043      -13.00607
C          4.69332        2.88217      -12.74900
C          5.04128        2.66392      -11.27281
C          6.54320        2.49905      -11.01952
C          6.90116        2.31196       -9.54078
C          8.41271        2.20347       -9.30646
C          8.77693        2.07553       -7.83708
O         10.21108        2.09197       -7.72542
C         10.69255        2.15983       -6.40309
C         12.18073        2.54242       -6.48755
N         12.87937        1.49462       -7.23563
C         14.31123        1.69878       -7.37621
C         14.97666        1.75825       -6.00014
N         14.24403        2.76533       -5.13454
C         12.76819        2.50682       -5.06942
C         16.48105        2.06944       -6.05554
C         17.06816        2.68651       -4.77897
O         16.43179        2.09968       -3.63627
C         17.03377        2.48665       -2.38103
C         16.33509        1.71530       -1.27778
O         16.57149        0.31651       -1.34085
C         12.28837        3.96468       -7.18385
C         12.46258        5.12214       -6.23663
O         13.52383        5.34008       -5.63920
O         11.35460        5.84348       -6.09181
C         11.37586        7.00215       -5.18524
C         11.51202        8.29584       -5.97153
C         11.33606        9.51854       -5.06006
C         11.42917       10.85231       -5.80878
C         11.19989       12.06797       -4.90318
C         11.30123       13.40315       -5.64420
H          1.13328        3.66931      -15.78956
H          0.96693        4.37462      -14.17033
H          0.77143        2.62710      -14.40091
H          3.40231        4.18520      -14.84757
H          3.20871        2.45099      -15.07850
H          2.64636        2.18486      -12.63916
H          2.82609        3.92164      -12.40656
H          5.24033        3.76530      -13.12435
H          5.06150        2.02626      -13.34167
H          4.50562        1.77464      -10.89702
H          4.66393        3.51609      -10.68031
H          7.07598        3.38380      -11.41052
H          6.92130        1.63884      -11.59890
H          6.39649        1.41156       -9.15069
H          6.50030        3.16166       -8.96100
H          8.91453        3.09804       -9.71088
H          8.81962        1.33882       -9.85515
H          8.37932        1.13962       -7.40198
H          8.36255        2.92102       -7.25436
H         10.58758        1.18676       -5.88539
H         10.14669        2.92867       -5.81983
H         12.41304        1.32031       -8.12609
H         14.59101        2.61647       -7.94001
H         14.73835        0.85115       -7.92939
H         14.81238        0.80081       -5.48503
H         14.33684        3.76645       -5.45920
H         14.69912        2.68913       -4.20092
H         12.32928        3.26363       -4.40776
H         12.61561        1.51032       -4.63581
H         16.69495        2.75469       -6.89012
H         16.99092        1.12311       -6.28354
H         16.91793        3.78375       -4.76222
H         18.15581        2.51063       -4.74193
H         16.92188        3.57605       -2.22818
H         18.10786        2.23604       -2.40615
H         15.25070        1.94460       -1.29466
H         16.72557        2.05258       -0.30712
H         16.28406       -0.00071       -2.21166
H         11.39962        4.09004       -7.81087
H         13.16714        3.97843       -7.84246
H         12.19204        6.86683       -4.46417
H         10.40919        6.94584       -4.66796
H         10.75256        8.31158       -6.76928
H         12.49793        8.32457       -6.46266
H         12.09422        9.49584       -4.25822
H         10.35669        9.45537       -4.55474
H         10.68946       10.86356       -6.62832
H         12.41853       10.93458       -6.29183
H         11.92895       12.04768       -4.07554
H         10.20588       11.98269       -4.43207
H         12.29998       13.54199       -6.08408
H         11.11576       14.24967       -4.96979
H         10.56874       13.46369       -6.46289
