106

C          0.56600        0.44023        0.12281
C          2.09369        0.35828        0.13126
C          2.67520       -0.24556       -1.15049
C          4.20440       -0.32301       -1.15346
C          4.78804       -0.92628       -2.43419
C          6.31774       -0.99735       -2.43655
C          6.90257       -1.60393       -3.71495
C          8.43249       -1.67056       -3.71982
C          9.01426       -2.28296       -4.99701
C         10.54435       -2.34413       -5.00875
C         11.12142       -2.96028       -6.28627
C         12.65197       -3.00639       -6.31025
C         13.22266       -3.62855       -7.58777
C         14.75341       -3.66015       -7.62701
C         15.31231       -4.29489       -8.90358
C         16.84264       -4.33209       -8.95703
C         17.38065       -4.98468      -10.23476
C         18.91268       -5.02820      -10.29448
C         19.48783       -5.81431      -11.49166
C         19.15834       -5.11083      -12.80229
N         19.69137       -5.76515      -14.08755
C         19.15823       -4.94302      -15.25737
C         19.81398       -5.32059      -16.58601
N         21.26935       -5.29420      -16.56126
C         21.82900       -6.09013      -15.47119
C         21.21563       -5.74297      -14.09825
C         23.35889       -5.93380      -15.45361
C         24.09370       -7.06604      -14.72319
C         25.61473       -6.99237      -14.94936
F         25.92370       -6.89785      -16.26155
F         26.12741       -5.89145      -14.31842
F         26.24002       -8.07339      -14.44604
O         23.81877       -7.11297      -13.32502
C         19.20760       -7.20312      -14.17606
O         17.82421       -7.17949      -14.10856
C         17.22654       -8.49670      -14.25196
C         15.71731       -8.34814      -14.21953
C         15.00342       -9.69855      -14.35397
C         13.47622       -9.56624      -14.34424
C         12.76206      -10.91324      -14.46408
H          0.17949        0.87890        1.05316
H          0.11486       -0.55729        0.01268
H          0.20540        1.05903       -0.71240
H          2.42705       -0.23969        0.99628
H          2.51663        1.36626        0.27982
H          2.33790        0.34915       -2.01790
H          2.25751       -1.25737       -1.29778
H          4.54086       -0.91666       -0.28523
H          4.61992        0.68951       -1.00611
H          4.44947       -0.33464       -3.30302
H          4.37579       -1.94031       -2.58022
H          6.65644       -1.58619       -1.56593
H          6.72936        0.01731       -2.29324
H          6.56114       -1.01726       -4.58604
H          6.49350       -2.61995       -3.85607
H          8.77516       -2.25366       -2.84695
H          8.84193       -0.65405       -3.58367
H          8.66683       -1.70262       -5.86996
H          8.60783       -3.30113       -5.13008
H         10.89363       -2.92185       -4.13501
H         10.95055       -1.32547       -4.87968
H         10.76133       -2.38952       -7.16042
H         10.72389       -3.98328       -6.40869
H         13.01477       -3.57306       -5.43493
H         13.04911       -1.98272       -6.19405
H         12.84778       -3.06988       -8.46354
H         12.83455       -4.65676       -7.69608
H         15.13090       -4.21265       -6.74909
H         15.14276       -2.63177       -7.52900
H         14.93047       -3.74320       -9.78091
H         14.92101       -5.32327       -8.99829
H         17.22866       -4.87869       -8.07955
H         17.23835       -3.30502       -8.87464
H         16.97338       -4.43922      -11.10360
H         16.98728       -6.01409      -10.30827
H         19.29406       -5.50154       -9.37684
H         19.31915       -4.00246      -10.29527
H         19.05740       -6.82719      -11.47973
H         20.57583       -5.91339      -11.36377
H         19.57647       -4.09418      -12.81244
H         18.07469       -5.04416      -12.94756
H         19.37923       -3.89686      -15.00422
H         18.07143       -5.08743      -15.27043
H         19.44925       -4.61932      -17.34923
H         19.48466       -6.32106      -16.91096
H         21.62568       -4.33617      -16.53923
H         21.60733       -7.14712      -15.70665
H         21.49770       -4.71740      -13.81703
H         21.56930       -6.42706      -13.31869
H         23.64547       -4.96286      -15.01549
H         23.68199       -5.92363      -16.50459
H         23.77351       -8.03918      -15.12956
H         24.40315       -6.47717      -12.87600
H         19.67770       -7.74546      -13.33619
H         19.57588       -7.62514      -15.12659
H         17.58361       -9.14185      -13.42887
H         17.56396       -8.93927      -15.20733
H         15.40631       -7.67705      -15.03616
H         15.42552       -7.86146      -13.27528
H         15.31602      -10.36578      -13.53244
H         15.31854      -10.19351      -15.28874
H         13.16608       -8.90593      -15.17113
H         13.16306       -9.06060      -13.41575
H         13.03422      -11.42787      -15.39711
H         11.67151      -10.78743      -14.46004
H         13.02340      -11.57877      -13.62846
