47

C          0.73652        0.04317        0.00074
C          2.26674        0.01766        0.01429
C          2.84982       -0.52485        1.32384
C          4.38110       -0.53914        1.35524
C          4.95939       -1.09028        2.66255
C          6.49084       -1.08048        2.70149
C          7.06744       -1.65382        3.99991
C          8.59857       -1.60295        4.04903
C          9.16769       -2.21469        5.33849
C         10.68301       -2.08069        5.38734
N         11.27213       -2.67435        6.65952
C         12.76181       -2.40122        6.85006
O         13.35896       -3.46176        6.17333
C         12.69629       -4.64987        6.56983
C         11.20360       -4.20782        6.72002
Br        10.21911       -4.67873        8.32250
N         13.27526       -5.19148        7.82496
O         12.70688       -6.51217        7.83262
O         14.65633       -5.33753        7.51119
H          0.34898        0.43389       -0.94988
H          0.33989        0.67806        0.80685
H          0.31880       -0.96522        0.13922
H          2.65476        1.03538       -0.16114
H          2.63422       -0.59400       -0.82708
H          2.47068       -1.54804        1.49451
H          2.47331        0.07996        2.16774
H          4.75898        0.48560        1.19259
H          4.75945       -1.13801        0.50822
H          4.59570       -2.12128        2.81706
H          4.56973       -0.50184        3.51166
H          6.85275       -0.04633        2.56613
H          6.88359       -1.65390        1.84382
H          6.73099       -2.69810        4.12124
H          6.65729       -1.09893        4.86139
H          8.93406       -0.55586        3.95893
H          9.01527       -2.13655        3.17805
H          8.86316       -3.27212        5.40203
H          8.72680       -1.70919        6.21516
H         10.98499       -1.02371        5.38718
H         11.18637       -2.58042        4.54793
H         10.73548       -2.31563        7.46395
H         12.95613       -2.39930        7.93521
H         13.04684       -1.45371        6.38126
H         12.81775       -5.38584        5.76067
H         10.60525       -4.55588        5.87500
H         12.62786       -6.72049        8.78133
H         15.10032       -5.15315        8.35808
