129

C         -0.63561      -20.85717        5.10972
C          0.89092      -20.74602        5.15219
C          1.47813      -19.95906        3.97461
C          3.00366      -19.82339        4.02590
C          3.59737      -19.04154        2.84879
C          5.11550      -18.85572        2.94358
C          5.72347      -18.07124        1.77542
C          7.22772      -17.82175        1.93037
C          7.85457      -17.02237        0.78216
C          9.33442      -16.69599        1.01374
C          9.98127      -15.86688       -0.10207
C         11.42909      -15.46974        0.20970
C         12.09836      -14.61085       -0.87040
C         13.49873      -14.13452       -0.46750
C         14.20762      -13.25705       -1.50657
C         15.54413      -12.71263       -0.98886
C         16.31509      -11.84232       -1.99732
C         17.38249      -10.89740       -1.40934
C         18.66638      -11.51036       -0.78157
C         19.43619      -12.35839       -1.81721
C         20.79284      -12.92314       -1.37195
C         21.32068      -14.06788       -2.26031
C         21.55761      -13.60512       -3.71046
C         21.96402      -14.72157       -4.69394
C         21.96268      -14.24142       -6.11781
C         23.02390      -13.97517       -6.90147
C         24.46023      -14.13858       -6.47704
C         22.83116      -13.48148       -8.31196
C         22.58020      -14.67437       -1.62755
N         18.30523      -12.43516        0.32662
C         17.99709      -12.04351        1.56133
N         17.52398      -12.94898        2.45144
N         18.18822      -10.77231        1.92483
C         18.83201       -9.76850        1.06867
C         19.56700      -10.43246       -0.10180
C         20.13693       -9.37247       -1.05353
C         21.28697       -8.59290       -0.41811
O         21.57958       -8.64269        0.76437
O         21.91392       -7.84039       -1.33520
C         23.00414       -6.98961       -0.83905
C         24.32617       -7.73868       -0.74299
C         25.43097       -6.83868       -0.17209
C         26.78022       -7.55162       -0.02663
C         27.86050       -6.67479        0.61514
C         29.22399       -7.36348        0.73448
C         30.29255       -6.49335        1.40649
C         31.66249       -7.17107        1.49236
H         -1.02330      -21.42763        5.96512
H         -0.97404      -21.36294        4.19291
H         -1.10914      -19.86414        5.13115
H          1.33396      -21.75630        5.16966
H          1.19905      -20.26641        6.09688
H          1.02392      -18.95254        3.94754
H          1.18389      -20.44633        3.02806
H          3.45901      -20.82889        4.06267
H          3.29104      -19.32935        4.97116
H          3.11377      -18.05030        2.78931
H          3.34671      -19.55539        1.90409
H          5.60186      -19.84504        3.01124
H          5.35603      -18.33871        3.88971
H          5.20379      -17.10135        1.67876
H          5.53264      -18.61036        0.83083
H          7.75124      -18.78913        2.03019
H          7.40528      -17.28601        2.87996
H          7.29336      -16.08112        0.64521
H          7.74106      -17.58158       -0.16289
H          9.90040      -17.63510        1.14570
H          9.43312      -16.15006        1.96903
H          9.38375      -14.95380       -0.27085
H          9.94668      -16.43052       -1.05048
H         12.03065      -16.38109        0.37597
H         11.44703      -14.91925        1.16763
H         11.46499      -13.73196       -1.08298
H         12.15597      -15.17900       -1.81472
H         14.13017      -15.01429       -0.24461
H         13.41962      -13.57128        0.48067
H         13.55602      -12.41083       -1.78360
H         14.37201      -13.83188       -2.43359
H         16.15863      -13.57531       -0.67502
H         15.35123      -12.12530       -0.07240
H         15.58748      -11.19485       -2.51218
H         16.74558      -12.47482       -2.78936
H         16.88840      -10.25963       -0.65814
H         17.71767      -10.21792       -2.20782
H         19.54592      -11.75380       -2.72802
H         18.77821      -13.19533       -2.11183
H         20.71771      -13.30206       -0.33765
H         21.55122      -12.12245       -1.34219
H         20.53958      -14.85314       -2.28384
H         22.33420      -12.81966       -3.72124
H         20.64303      -13.13100       -4.10297
H         21.24775      -15.55673       -4.59325
H         22.94708      -15.12820       -4.41894
H         20.96876      -14.07096       -6.54869
H         24.57392      -14.48222       -5.44226
H         25.00217      -13.18431       -6.57713
H         24.97992      -14.85707       -7.13133
H         21.76873      -13.37563       -8.56679
H         23.29104      -14.17201       -9.03762
H         23.32113      -12.50540       -8.46134
H         23.40779      -13.94789       -1.62157
H         22.92338      -15.56294       -2.17170
H         22.39658      -14.97889       -0.58690
H         18.21663      -13.42165        0.10708
H         17.06462      -13.78666        2.11533
H         17.31126      -12.67192        3.40133
H         17.87089      -10.48291        2.84341
H         19.56085       -9.21318        1.67104
H         18.06636       -9.06084        0.71123
H         20.42224      -10.97617        0.32858
H         19.37157       -8.64433       -1.36742
H         20.51173       -9.82827       -1.98035
H         22.70374       -6.58754        0.13833
H         23.04917       -6.17455       -1.57225
H         24.61188       -8.10969       -1.74048
H         24.19854       -8.61665       -0.09071
H         25.11351       -6.46188        0.81550
H         25.55559       -5.94846       -0.81234
H         27.12324       -7.89255       -1.01901
H         26.64551       -8.46538        0.57862
H         27.52147       -6.35919        1.61770
H         27.97321       -5.74541        0.03018
H         29.57267       -7.65755       -0.27125
H         29.11194       -8.30475        1.30155
H         29.95256       -6.22138        2.42008
H         30.38515       -5.54241        0.85494
H         31.60995       -8.10652        2.06963
H         32.40282       -6.52293        1.98049
H         32.04820       -7.42193        0.49286
