68

C          7.58317        6.74754       -7.63390
O          6.79821        5.84072       -6.86670
C          6.36673        6.40586       -5.64582
C          5.48889        5.41643       -4.91111
O          6.27238        4.28491       -4.49325
C          5.51117        3.31634       -3.76721
C          6.28301        1.98462       -3.70539
C          7.81832        2.12189       -3.72173
N          8.26511        3.29651       -2.94791
C          9.12449        3.07061       -2.00925
C          9.44533        1.61234       -1.93423
C          8.61947        0.94903       -3.07924
C          9.48469        0.19187       -4.09838
C         10.12360       -1.08020       -3.52945
C         10.92394       -1.86053       -4.58162
P         11.45099       -3.49694       -3.97876
O         10.36410       -4.28679       -3.34975
O         12.18368       -4.21080       -5.22169
C         11.47962       -5.20364       -6.03113
C         12.50957       -6.09507       -6.69329
O         12.68996       -3.08274       -3.04497
C         13.36458       -4.11434       -2.25841
C         14.28903       -3.42917       -1.27402
C          9.65942        4.15015       -1.12834
C         11.20328        4.28164       -1.10657
C         11.87448        4.58595       -2.44598
C         11.45521        5.90531       -3.17285
Br        11.64752        7.48686       -2.04836
F         12.15305        6.06355       -4.30630
F         10.13338        5.79345       -3.53409
Br        13.81005        4.59262       -2.18726
F         11.56146        3.56778       -3.34415
H          7.85560        6.23059       -8.56089
H          8.50424        7.03843       -7.09624
H          7.01452        7.66162       -7.88251
H          5.77354        7.32668       -5.81893
H          7.23535        6.69097       -5.01439
H          4.67645        5.06799       -5.57235
H          5.03825        5.91321       -4.03166
H          4.53377        3.15435       -4.25198
H          5.30650        3.69497       -2.74639
H          6.01504        1.35007       -4.56148
H          5.96750        1.44830       -2.79766
H          8.14178        2.30828       -4.75753
H          7.88781        4.21277       -3.23329
H          9.20558        1.22881       -0.92965
H         10.52954        1.46520       -2.06097
H          7.90550        0.23910       -2.63628
H         10.26059        0.87006       -4.49523
H          8.84786       -0.08258       -4.95571
H          9.33654       -1.73647       -3.12453
H         10.78736       -0.83495       -2.68440
H         11.81058       -1.30617       -4.92270
H         10.29998       -2.05791       -5.46840
H         10.87947       -4.66676       -6.78346
H         10.80057       -5.77018       -5.37883
H         13.19299       -5.50966       -7.32257
H         12.00194       -6.83261       -7.33031
H         13.10062       -6.63726       -5.94361
H         13.92460       -4.76060       -2.95092
H         12.60205       -4.72008       -1.74707
H         15.03569       -2.81532       -1.79493
H         14.82038       -4.18574       -0.68034
H         13.72441       -2.78793       -0.58413
H          9.36084        3.89363       -0.09758
H          9.18515        5.10870       -1.37275
H         11.65869        3.35200       -0.73939
H         11.47020        5.07082       -0.39359
