45

C          1.27758        0.10710       -0.49304
C          2.75426        0.40963       -0.22315
C          3.03168        0.65428        1.25081
O          4.43645        0.91203        1.41806
C          4.81851        1.07947        2.76502
C          6.33235        1.28966        2.76562
N          6.86290        1.44147        4.11261
C          8.31786        1.42532        4.13578
C          8.86626        2.64814        3.39766
N          8.23816        2.65989        2.00219
C          6.69929        2.54516        1.95098
C          6.07924        3.82794        2.42085
C          5.51169        4.69314        1.57524
C         10.38562        2.68366        3.23360
C         11.14703        2.75896        4.56440
C         12.66672        2.90999        4.34240
C         13.40589        2.94165        5.59535
C         13.99559        2.96327        6.65048
H          1.10593       -0.06635       -1.56279
H          0.62937        0.94000       -0.18489
H          0.94497       -0.79251        0.04438
H          3.07118        1.29599       -0.79526
H          3.38249       -0.42811       -0.56366
H          2.74980       -0.22962        1.85477
H          2.45080        1.51767        1.62838
H          4.57826        0.17982        3.36758
H          4.30676        1.94279        3.23356
H          6.77724        0.41633        2.23311
H          6.47431        0.74534        4.74758
H          8.75603        0.50690        3.68080
H          8.66399        1.46954        5.17595
H          8.50111        3.56312        3.88571
H          8.64009        1.87359        1.46830
H          8.51527        3.52405        1.51666
H          6.45834        2.37208        0.89319
H          6.07465        4.01069        3.49775
H          5.47378        4.50876        0.49901
H          5.04524        5.61144        1.93165
H         10.65638        3.55963        2.61787
H         10.71536        1.79024        2.67270
H         10.97067        1.85328        5.16270
H         10.78402        3.60924        5.16242
H         12.87113        3.83246        3.77228
H         13.03700        2.07590        3.72162
H         14.53335        2.98586        7.57528
