80

C          0.65887       -0.21640        0.26875
C          2.18455       -0.29125        0.18432
C          2.77719        0.64781       -0.87048
C          4.30258        0.57078       -0.97379
C          4.89336        1.49677       -2.04042
C          6.41646        1.39835       -2.16176
C          7.00575        2.31019       -3.24141
C          8.52159        2.16705       -3.40387
C          9.10697        3.05424       -4.50647
C         10.60350        2.82899       -4.74279
C         11.18100        3.69306       -5.86828
C         12.64267        3.37339       -6.19684
C         13.20759        4.22149       -7.34134
C         14.62451        3.80749       -7.75931
C         15.19348        4.59974       -8.94917
C         15.63970        6.00995       -8.54729
N         16.01583        6.89800       -9.67244
C         17.25622        7.37529       -9.84889
N         17.50585        8.51136      -10.55236
C         18.94532        8.81129      -10.59830
C         19.53729        7.76693       -9.62999
N         18.41460        6.83420       -9.40699
C         18.68350        5.45792       -9.01116
C         14.90104        7.38174      -10.52619
C         13.96361        8.41539       -9.88843
C         14.56293        9.79945       -9.61939
C         13.54054       10.79967       -9.06450
C         14.13199       12.18674       -8.81179
H          0.26183       -0.90410        1.02800
H          0.19435       -0.47845       -0.69343
H          0.32449        0.79826        0.53119
H          2.49190       -1.32644       -0.04092
H          2.62236       -0.05314        1.16843
H          2.47729        1.68609       -0.64310
H          2.33302        0.41418       -1.85429
H          4.59928       -0.47020       -1.19254
H          4.74828        0.81200        0.00721
H          4.61003        2.54030       -1.81645
H          4.43606        1.26289       -3.01803
H          6.69491        0.35224       -2.37998
H          6.87835        1.63688       -1.18777
H          6.75724        3.36071       -3.00933
H          6.51719        2.09025       -4.20704
H          8.76105        1.11196       -3.62482
H          9.01863        2.39545       -2.44496
H          8.92667        4.11524       -4.25981
H          8.56266        2.86574       -5.44860
H         10.77230        1.76425       -4.98154
H         11.15909        3.02149       -3.80846
H         11.08619        4.75948       -5.59816
H         10.57101        3.55476       -6.77820
H         12.72567        2.30638       -6.46612
H         13.26538        3.50879       -5.29585
H         13.18353        5.28434       -7.04284
H         12.54073        4.13479       -8.21715
H         14.61070        2.74177       -8.03448
H         15.30953        3.88428       -6.89686
H         14.42645        4.65731       -9.73757
H         16.04093        4.05337       -9.39203
H         16.47961        5.96895       -7.84340
H         14.82165        6.51709       -8.01370
H         16.81416        9.25434      -10.57217
H         19.13450        9.83939      -10.26838
H         19.32826        8.69632      -11.62209
H         19.86741        8.20584       -8.67590
H         20.38307        7.22353      -10.07041
H         19.60357        5.12372       -9.50989
H         17.86874        4.80186       -9.32902
H         18.82615        5.36567       -7.92440
H         14.31948        6.49080      -10.80143
H         15.33734        7.76706      -11.45768
H         13.53471        8.01027       -8.95781
H         13.11176        8.52027      -10.57952
H         14.97184       10.21284      -10.56257
H         15.40104        9.72208       -8.90297
H         13.11964       10.39718       -8.12860
H         12.69776       10.87638       -9.77024
H         14.95580       12.14604       -8.08390
H         13.37420       12.87361       -8.41348
H         14.52385       12.63021       -9.73899
