29

C          1.00057       -0.25423        0.06377
N          2.46235       -0.06366        0.02292
N          2.94012        0.43705        1.33519
C          4.43855        0.64098        1.32261
C          4.98933        1.11649        2.67300
O          6.33437        0.69899        2.65630
C          7.10196        1.17511        3.75537
C          8.51915        0.62432        3.59960
F          9.09287        1.04287        2.44946
F          9.27441        1.05571        4.63480
F          8.52897       -0.72819        3.59998
C          2.23686        1.71368        1.70403
C          3.13389       -1.33293       -0.31349
H          0.47333        0.70226        0.12579
H          0.66804       -0.92738        0.87840
H          0.72255       -0.71181       -0.89107
H          2.72890       -0.26930        2.07090
H          4.65334        1.33655        0.50279
H          4.90834       -0.32375        1.11080
H          4.43502        0.64834        3.51681
H          4.91381        2.21364        2.78678
H          6.69960        0.81776        4.71924
H          7.15788        2.27721        3.76703
H          2.35244        2.41071        0.86749
H          2.70310        2.11372        2.60860
H          1.18287        1.51400        1.90604
H          2.65374       -1.70115       -1.22589
H          3.02398       -2.10886        0.46966
H          4.19125       -1.17988       -0.54762
