81

C          0.32843       -0.35809        0.68069
C          1.72175        0.03850        0.18645
C          2.38363       -1.03359       -0.68634
C          3.76549       -0.63424       -1.21269
C          4.42651       -1.71183       -2.07744
C          5.80030       -1.30769       -2.62141
C          6.44368       -2.37527       -3.51087
C          7.81872       -1.97456       -4.05085
C          8.46465       -3.04782       -4.93123
C          9.92304       -2.72680       -5.26550
C         10.57492       -3.79542       -6.15745
C         12.11399       -3.90085       -6.21573
C         12.80545       -5.00274       -5.34515
C         12.22197       -5.44378       -3.98265
C         11.76694       -4.40919       -2.97455
C         10.46640       -4.50382       -2.45613
C          9.96982       -3.56018       -1.56009
C         10.75395       -2.47294       -1.14405
C         12.07021       -2.40385       -1.62374
C         12.57406       -3.36083       -2.50741
C         10.19843       -1.43248       -0.20815
N         14.15881       -4.41581       -5.22783
C         14.11269       -3.08375       -5.41067
N         15.15068       -2.26827       -5.17154
N         12.91703       -2.68527       -5.85890
C         12.66467       -1.32013       -6.32594
C         12.42312       -0.36831       -5.13812
C         12.11145        1.08279       -5.51304
C         13.30793        2.10856       -5.51898
C         14.51679        1.93800       -6.51654
C         14.25501        1.99623       -8.06715
F         13.53242        3.06996       -8.39508
F         15.43925        2.04383       -8.69613
F         13.60480        0.88215       -8.47925
F         15.40340        2.90665       -6.21904
F         15.12469        0.71869       -6.25842
F         12.80252        3.34698       -5.71294
F         13.86876        2.05436       -4.27142
F         11.47286        1.15784       -6.72584
F         11.25069        1.58653       -4.57416
H         -0.11078        0.42161        1.31776
H          0.36150       -1.28754        1.26883
H         -0.36015       -0.52534       -0.16114
H          2.37316        0.25651        1.04955
H          1.65521        0.98009       -0.38472
H          1.72281       -1.26650       -1.54006
H          2.46854       -1.97159       -0.10929
H          4.42614       -0.39197       -0.36130
H          3.67634        0.29773       -1.79818
H          3.76053       -1.95989       -2.92231
H          4.52541       -2.64221       -1.49064
H          6.47595       -1.07954       -1.77693
H          5.70516       -0.36721       -3.19188
H          5.76918       -2.60363       -4.35440
H          6.54089       -3.31664       -2.94074
H          8.49093       -1.75611       -3.20274
H          7.73341       -1.03284       -4.62017
H          7.88153       -3.17336       -5.85944
H          8.42341       -4.02027       -4.41233
H         10.48047       -2.61838       -4.32558
H          9.95090       -1.74999       -5.77373
H         10.20842       -3.66840       -7.18612
H         10.20954       -4.78722       -5.84687
H         12.38664       -4.13858       -7.25927
H         12.88043       -5.90972       -5.96092
H         12.98360       -6.10765       -3.53386
H         11.37400       -6.10840       -4.20418
H          9.82449       -5.32779       -2.77417
H          8.94848       -3.66085       -1.18761
H         12.71924       -1.59269       -1.28713
H         13.61701       -3.27676       -2.81637
H          9.89989       -1.88107        0.75033
H          9.30103       -0.95752       -0.63257
H         10.93085       -0.64358        0.00202
H         14.86574       -4.84256       -4.63669
H         16.05444       -2.65632       -4.93163
H         15.13659       -1.30203       -5.47948
H         11.78122       -1.34844       -6.97136
H         13.49780       -0.99521       -6.96446
H         13.26207       -0.37342       -4.43031
H         11.55308       -0.72578       -4.57455
