53

C          0.74549       -2.18345        0.65855
O          1.16156       -1.74308       -0.65279
C          2.42915       -2.00372       -1.05147
C          3.41065       -2.66982       -0.30477
C          4.68489       -2.86181       -0.84224
C          5.01464       -2.41083       -2.12452
C          4.05083       -1.75634       -2.88661
C          2.77581       -1.55984       -2.34956
N          1.80266       -0.83381       -3.11199
C          1.74451        0.48284       -3.43439
N          0.63630        0.70001       -4.16110
N          0.00055       -0.45295       -4.29381
N          0.68501       -1.37895       -3.67747
C          0.30522       -2.79344       -3.61521
C         -1.17360       -2.96620       -3.97734
O         -1.43161       -4.32179       -3.68097
C         -2.76201       -4.71779       -3.97979
C         -2.91957       -6.17166       -3.54122
F         -2.05674       -6.98745       -4.18775
F         -2.70597       -6.31648       -2.21098
F         -4.17909       -6.58418       -3.81317
C          2.74618        1.50137       -3.02979
C          2.21417        2.92245       -3.26356
C          3.24711        4.04004       -3.08210
C          3.39360        4.69252       -1.65561
C          3.88190        3.83907       -0.42268
C          5.30707        3.17492       -0.46706
F          6.24570        4.04721       -0.84369
F          5.60024        2.70592        0.75668
F          5.31338        2.12368       -1.32625
F          3.85834        4.66303        0.64677
F          2.97374        2.83026       -0.20668
F          4.22624        5.75320       -1.76731
F          2.15242        5.14504       -1.30682
F          4.49209        3.63630       -3.50057
F          2.87073        5.07988       -3.88690
H         -0.29210       -1.85167        0.75564
H          1.35865       -1.71486        1.44060
H          0.79397       -3.27910        0.73510
H          3.18472       -3.03276        0.69610
H          5.43519       -3.37777       -0.24272
H          6.01305       -2.56962       -2.52826
H          4.27377       -1.39821       -3.89233
H          0.47487       -3.14005       -2.58878
H          0.95583       -3.35870       -4.29815
H         -1.35605       -2.73411       -5.04158
H         -1.79891       -2.28737       -3.36682
H         -2.97509       -4.65646       -5.06118
H         -3.50254       -4.11205       -3.42844
H          3.66649        1.34208       -3.61460
H          3.02054        1.31729       -1.98215
H          1.34801        3.13509       -2.62322
H          1.86919        3.01971       -4.30164
