72

C          1.44650      -11.92345        5.35506
C          2.96403      -11.86253        5.16736
C          3.39715      -10.89348        4.06251
C          4.91402      -10.82824        3.86067
C          5.34468       -9.85280        2.76076
C          6.86020       -9.79915        2.54411
C          7.28960       -8.81399        1.45216
C          8.80009       -8.79652        1.19963
C          9.23322       -7.82265        0.09903
C         10.73070       -7.88746       -0.21578
C         11.15470       -6.99124       -1.38474
C         12.65364       -7.04509       -1.72681
C         13.19058       -8.43689       -2.09865
C         12.59089       -9.00613       -3.39443
C         12.88224      -10.49747       -3.52959
N         12.49659      -11.01193       -4.87242
C         11.81867      -12.14382       -5.07647
N         11.80261      -12.74123       -6.28228
N         11.12742      -12.66006       -4.05167
C         10.99634      -11.86415       -2.80513
O         12.28845      -11.31530       -2.52682
C          9.94189      -10.85572       -2.99707
C          9.00789      -10.09897       -3.12827
C         10.69247      -12.79440       -1.62202
C          9.30088      -13.42640       -1.63072
O          9.27984      -14.33132       -0.54290
C          7.99783      -14.87740       -0.29363
C          8.11349      -15.82985        0.89342
F          8.54644      -15.19700        2.00679
F          6.89318      -16.35962        1.15691
F          8.96689      -16.84877        0.63821
H          1.16630      -12.62516        6.15246
H          0.94396      -12.24977        4.43224
H          1.03892      -10.93694        5.62146
H          3.34877      -12.87044        4.93658
H          3.44229      -11.56622        6.11603
H          3.01640       -9.88354        4.29578
H          2.91414      -11.18581        3.11300
H          5.29368      -11.83811        3.62340
H          5.39658      -10.54069        4.81102
H          4.97630       -8.84163        3.00659
H          4.85048      -10.13091        1.81263
H          7.22759      -10.81000        2.28987
H          7.35617       -9.53017        3.49269
H          6.95178       -7.79895        1.72319
H          6.76663       -9.06334        0.51092
H          9.13263       -9.81641        0.93123
H          9.32680       -8.54777        2.13682
H          8.95734       -6.79356        0.38513
H          8.66104       -8.04096       -0.82131
H         10.99202       -8.93784       -0.43257
H         11.30900       -7.61391        0.68367
H         10.89353       -5.94635       -1.15297
H         10.55246       -7.24877       -2.27453
H         13.23024       -6.68291       -0.86115
H         12.86429       -6.33936       -2.54720
H         12.99297       -9.13671       -1.27341
H         14.28616       -8.38776       -2.20263
H         13.02575       -8.48849       -4.26744
H         11.50535       -8.85167       -3.43721
H         13.96374      -10.68117       -3.40656
H         12.83038      -10.48965       -5.67696
H         12.48046      -12.50361       -6.99599
H         11.08797      -13.42017       -6.51537
H         10.85522      -13.63806       -4.05190
H          8.19519       -9.40907       -3.24087
H         10.81085      -12.19455       -0.71038
H         11.46473      -13.57756       -1.60117
H          9.08966      -13.96434       -2.58094
H          8.52272      -12.64976       -1.51920
H          7.61852      -15.45646       -1.15516
H          7.26244      -14.09524       -0.03282
