122

C          0.75672       -0.86700        2.19486
C          2.28557       -0.80946        2.20416
C          2.83762        0.61107        2.35733
C          4.36720        0.67750        2.35689
C          4.92190        2.09734        2.50070
C          6.45168        2.16231        2.48978
C          7.00443        3.58341        2.62695
C          8.53382        3.65407        2.61173
C          9.07835        5.07871        2.74523
C         10.60711        5.16034        2.73152
C         11.14048        6.58884        2.87147
C         12.66890        6.67913        2.87208
C         13.19548        8.10962        3.02014
C         14.72380        8.20168        3.02963
C         15.25244        9.63043        3.19038
C         16.78119        9.71492        3.16616
C         17.32661       11.13985        3.31015
C         18.85230       11.20191        3.18944
C         19.42376       12.62024        3.29808
C         20.94580       12.63180        3.07684
C         21.53306       14.01750        3.23096
O         21.18913       14.87147        2.19046
C         21.96604       16.06370        2.37873
C         23.34985       15.59501        2.91215
N         23.09872       14.10347        3.19158
C         23.72376       13.18600        2.17827
O         25.09395       13.40965        2.25495
C         25.84296       12.53684        1.38815
C         23.79865       16.33534        4.17000
C         25.16125       15.92992        4.74140
C         25.54923       16.75470        5.97470
C         26.87385       16.31175        6.60314
C         27.27579       17.13470        7.83133
C         28.58858       16.66515        8.46576
C         29.01637       17.48857        9.68449
C         30.34065       17.01929       10.29486
C         30.79522       17.84775       11.50009
C         32.13228       17.38379       12.08612
C         32.60133       18.21249       13.28562
C         33.93949       17.74420       13.86475
C         34.41487       18.56878       15.06484
C         35.75252       18.08864       15.63199
H          0.39113       -1.89674        2.07944
H          0.34160       -0.27095        1.36839
H          0.33837       -0.46801        3.13115
H          2.67718       -1.24965        1.27141
H          2.67473       -1.43904        3.02219
H          2.45255        1.05223        3.29389
H          2.44441        1.24382        1.54191
H          4.74978        0.23125        1.42186
H          4.76006        0.04795        3.17474
H          4.54508        2.54325        3.43816
H          4.52513        2.72798        1.68557
H          6.82837        1.71386        1.55347
H          6.84979        1.53506        3.30682
H          6.62903        4.03122        3.56409
H          6.60327        4.21034        1.81111
H          8.91035        3.20539        1.67549
H          8.93665        3.03052        3.42930
H          8.69950        5.52602        3.68121
H          8.67319        5.70106        1.92790
H         10.98842        4.71788        1.79427
H         11.01353        4.53719        3.54758
H         10.75034        7.03180        3.80482
H         10.73854        7.20973        2.05151
H         13.06104        6.24031        1.93759
H         13.07040        6.05618        3.69067
H         12.79775        8.54854        3.95204
H         12.79777        8.73142        2.19890
H         15.11957        7.77136        2.09266
H         15.12234        7.57141        3.84395
H         14.87476       10.05599        4.13648
H         14.84051       10.26463        2.38596
H         17.15002        9.28246        2.21930
H         17.19608        9.08206        3.97006
H         17.01299       11.56014        4.28125
H         16.87468       11.78449        2.53665
H         19.15176       10.76597        2.22036
H         19.30895       10.56342        3.96587
H         19.19017       13.04309        4.28978
H         18.94518       13.27538        2.55421
H         21.17072       12.24272        2.07216
H         21.42478       11.96277        3.81160
H         21.28431       14.45012        4.22093
H         21.47664       16.72278        3.11531
H         22.02789       16.57792        1.41374
H         24.12813       15.63078        2.14099
H         23.50439       13.86975        4.10934
H         23.28969       13.43614        1.19309
H         23.45318       12.15130        2.45243
H         26.89537       12.80034        1.52923
H         25.56057       12.69122        0.33448
H         25.68557       11.48184        1.66434
H         23.01501       16.24378        4.94400
H         23.81676       17.40560        3.90445
H         25.93389       16.03308        3.96213
H         25.16443       14.85910        5.02050
H         24.74592       16.68697        6.72900
H         25.61155       17.81931        5.69143
H         27.67535       16.37171        5.84653
H         26.80263       15.24683        6.88734
H         26.46839       17.08962        8.58301
H         27.36646       18.19697        7.54538
H         29.39030       16.69825        7.70724
H         28.49225       15.60471        8.75851
H         28.22337       17.44811       10.45168
H         29.10437       18.55023        9.39448
H         31.12624       17.04723        9.51926
H         30.24904       15.96029       10.59422
H         30.01907       17.81043       12.28456
H         30.87581       18.90836       11.20364
H         32.90484       17.41633       11.29769
H         32.05072       16.32396       12.38553
H         31.83057       18.18028       14.07574
H         32.68424       19.27227       12.98659
H         34.71036       17.77624       13.07441
H         33.85707       16.68393       14.16297
H         33.64527       18.53638       15.85450
H         34.49838       19.62757       14.76665
H         35.68893       17.04362       15.97032
H         36.06955       18.69722       16.49011
H         36.54809       18.14220       14.87387
