51

C          1.63141       -2.01769        0.69925
C          2.01782       -0.66601        0.14575
O          2.69902       -0.89673       -1.14449
C          3.13486        0.18715       -1.78618
O          2.99097        1.34255       -1.44495
C          3.92002       -0.24851       -3.04787
N          3.87291        0.84830       -4.04766
C          3.17735        0.67958       -5.20139
C          3.07077        1.70694       -6.10749
C          3.67006        2.96185       -5.84920
C          4.40014        3.13055       -4.63319
C          4.46697        2.04056       -3.77646
C          5.07587        4.42097       -4.24942
C          5.86451        4.39845       -2.94093
C          6.51730        5.74972       -2.64943
C          7.37767        5.69463       -1.39031
O          7.58182        4.68784       -0.75456
O          7.93548        6.87378       -0.99936
C          3.52049        4.01643       -6.81527
N          3.96537        5.25599       -6.78957
N          3.55897        5.87238       -7.93260
C          2.87071        4.96884       -8.61944
O          2.80274        3.76693       -7.97555
S          2.13613        5.25249      -10.14436
C          1.37739        3.62658      -10.53614
C          0.69929        3.74914      -11.89936
C          5.35471       -0.65802       -2.69198
H          1.12191       -1.87856        1.66213
H          2.51361       -2.64748        0.87139
H          0.94403       -2.54519        0.02506
H          2.71700       -0.12309        0.79666
H          1.15125       -0.01942       -0.04791
H          3.39840       -1.09992       -3.50248
H          2.72182       -0.29609       -5.35771
H          2.51208        1.54033       -7.02542
H          4.99569        2.10033       -2.83175
H          4.30477        5.20984       -4.22312
H          5.72658        4.72819       -5.08486
H          6.65736        3.63504       -2.97285
H          5.21412        4.13658       -2.09172
H          5.75422        6.53746       -2.52958
H          7.15511        6.06718       -3.49236
H          7.67946        7.59269       -1.60408
H          0.65653        3.38477       -9.74465
H          2.17371        2.87094      -10.54573
H         -0.09077        4.51177      -11.89259
H          0.23622        2.78809      -12.15906
H          1.41951        4.00036      -12.68920
H          5.89058        0.13468       -2.15431
H          5.91528       -0.91722       -3.59898
H          5.31944       -1.53988       -2.04160
