49

C          1.84372       -0.50256        1.76386
C          0.61967       -0.26525        0.91238
C         -0.30597       -1.30362        0.73395
C         -1.45603       -1.13698       -0.03889
C         -1.71588        0.09577       -0.63984
C         -0.80828        1.13987       -0.47365
C          0.36217        0.97032        0.27805
C          1.31972        2.14681        0.40071
C          2.74794        1.90903       -0.02670
C          3.83694        2.28055        0.78796
C          5.12379        2.02220        0.37693
C          5.32285        1.32658       -0.84031
N          4.29431        0.99027       -1.61483
N          3.05650        1.31831       -1.20511
C          2.03962        0.97213       -2.19230
C          1.46028        1.98249       -2.95144
C          0.48878        1.59351       -3.88059
N          0.09730        0.32565       -4.05579
C          0.69014       -0.62287       -3.31700
C          1.68644       -0.35973       -2.37345
C          6.69420        0.97751       -1.35190
C          7.49760        2.24065       -1.62261
C          8.60073        2.57337       -0.82514
C          9.32924        3.73862       -1.07926
C          8.95686        4.58282       -2.12812
C          7.85549        4.25779       -2.92652
C          7.12677        3.09539       -2.67328
H          1.73384       -1.42220        2.35038
H          2.02273        0.31701        2.47604
H          2.75928       -0.62009        1.16080
H         -0.12087       -2.26177        1.22312
H         -2.15470       -1.96537       -0.15809
H         -2.61625        0.24445       -1.23586
H         -1.00211        2.10271       -0.95014
H          1.36883        2.50079        1.44247
H          0.91800        2.99142       -0.18163
H          3.62831        2.76710        1.74040
H          5.98490        2.33009        0.97151
H          1.75136        3.02680       -2.83706
H          0.00503        2.34313       -4.51184
H          0.35245       -1.64849       -3.48194
H          2.13872       -1.15606       -1.78478
H          6.57982        0.36954       -2.25911
H          7.20987        0.36190       -0.59950
H          8.90691        1.90685       -0.01571
H         10.19492        3.98126       -0.46217
H          9.52926        5.48879       -2.32854
H          7.56846        4.90901       -3.75278
H          6.27506        2.84011       -3.30837
