41

C          1.43859       -2.78661       -7.25104
O          2.84459       -2.95917       -7.11057
C          3.29434       -2.73016       -5.79131
C          4.79438       -2.98866       -5.79662
O          5.27896       -2.77360       -4.46279
C          6.66045       -2.97814       -4.34229
C          7.04236       -2.53227       -2.91278
C          8.50023       -2.71580       -2.63834
C          9.40545       -1.65070       -2.79339
C         10.75200       -1.85059       -2.59250
C         11.19373       -3.15013       -2.24235
N         10.33436       -4.15101       -2.08683
N          9.02531       -3.92460       -2.28137
C          8.18711       -5.07686       -2.07786
C          8.65735       -6.26677       -1.70121
C         12.63636       -3.46745       -1.99215
C         13.06316       -3.06276       -0.55792
C         14.54049       -3.35344       -0.33035
Br        15.06878       -2.85304        1.48606
H          1.19894       -2.98814       -8.30091
H          1.13159       -1.75555       -7.00008
H          0.88046       -3.49138       -6.60912
H          2.79664       -3.40937       -5.07112
H          3.09011       -1.69024       -5.46828
H          5.29698       -2.30136       -6.50084
H          4.99857       -4.02561       -6.11876
H          7.22885       -2.38154       -5.08459
H          6.93026       -4.04270       -4.50659
H          6.40799       -3.05817       -2.18627
H          6.80918       -1.46403       -2.81319
H          9.00858       -0.67571       -3.07452
H         11.47038       -1.03822       -2.70500
H          7.13436       -4.88876       -2.25552
H          9.71439       -6.45311       -1.52717
H          7.95239       -7.08442       -1.56320
H         13.25252       -2.92983       -2.72946
H         12.79169       -4.54407       -2.14301
H         12.45468       -3.61556        0.17307
H         12.86860       -1.99173       -0.39231
H         15.18645       -2.77504       -1.00024
H         14.77525       -4.41912       -0.42967
