63

C          1.43482        0.47984       -0.85576
C          2.94140        0.55239       -0.59587
C          3.30313        1.33618        0.67180
C          4.80901        1.36345        0.95229
C          5.18913        2.13845        2.22043
C          6.69633        2.09658        2.49493
C          7.10272        2.84472        3.76572
N          8.55397        2.72417        3.96254
C          9.25123        3.14895        5.02983
N          8.63573        3.78179        6.03954
C          9.35138        4.23911        7.23943
C         10.79757        4.60786        6.88210
C         11.43837        3.36642        6.21939
N         10.57871        2.95515        5.08923
C         12.87616        3.55186        5.72165
C         13.51947        2.28531        5.12083
C         14.95726        2.53047        4.71495
C         16.01157        2.10257        5.53289
C         17.33796        2.36456        5.17959
C         17.62517        3.06190        4.00404
C         16.58092        3.49062        3.17919
C         15.25708        3.22445        3.53271
C         10.87251        5.89263        6.02158
C         12.05243        6.80369        6.38815
C         12.24100        7.93493        5.39319
F         12.53707        7.45592        4.14884
F         11.11954        8.69575        5.26685
F         13.25122        8.75425        5.76141
H          1.21342       -0.08751       -1.76963
H          0.99889        1.48272       -0.97423
H          0.90927       -0.01310       -0.02440
H          3.44447        1.01347       -1.46250
H          3.35049       -0.46905       -0.51776
H          2.77823        0.89318        1.53633
H          2.92437        2.36952        0.58417
H          5.33497        1.80239        0.08663
H          5.17929        0.32687        1.03811
H          4.64663        1.71707        3.08424
H          4.85669        3.18623        2.12799
H          7.23780        2.53034        1.63638
H          7.02202        1.04617        2.58311
H          6.58047        2.41113        4.63560
H          6.82122        3.90912        3.68630
H          9.07680        2.29990        3.20323
H          7.63800        3.94036        5.96694
H          9.32439        3.45242        8.00974
H          8.81381        5.11177        7.63082
H         11.32345        4.76903        7.83554
H         11.43681        2.54889        6.96326
H         11.01995        2.43309        4.33906
H         13.48559        3.87109        6.58083
H         12.91910        4.36478        4.98072
H         12.96271        1.94562        4.22795
H         13.47201        1.46215        5.85078
H         15.79562        1.55241        6.45173
H         18.14791        2.01732        5.82210
H         18.65951        3.26559        3.72626
H         16.79881        4.02816        2.25564
H         14.44885        3.55570        2.87511
H          9.94110        6.46545        6.13703
H         10.93113        5.62944        4.95447
H         13.00393        6.25595        6.41755
H         11.90625        7.25806        7.37866
