55

O          1.98833        1.10994        1.87013
C          3.20080        0.55560        1.36826
C          3.52012       -0.63952        2.25530
O          4.75566       -1.19720        1.79472
C          5.15709       -2.33705        2.51620
C          6.41479       -2.84211        1.79264
N          7.14161       -3.85726        2.56020
C          6.36025       -5.04676        2.97497
O          7.21235       -6.05757        3.42452
C          8.09330       -5.56084        4.44490
N          8.98117       -4.57342        3.81745
C          8.44818       -3.76058        2.87801
N          9.25318       -2.87434        2.25897
C         10.44890       -4.70783        3.98850
C         11.14128       -3.46859        4.51870
C         12.17673       -2.87392        3.78417
C         12.82367       -1.72914        4.26065
C         12.45519       -1.14697        5.48044
C         11.42209       -1.75801        6.21618
C         10.77701       -2.89957        5.74988
C         13.14915        0.08094        6.00585
C          7.35040       -5.06318        5.67140
C          6.75153       -6.02802        6.49646
C          6.01410       -5.63793        7.61348
C          5.86861       -4.28014        7.91647
C          6.46566       -3.31562        7.10169
C          7.20684       -3.70466        5.98276
H          1.71517        1.83632        1.29058
H          4.03507        1.27901        1.41586
H          3.09842        0.21686        0.32192
H          2.70987       -1.38885        2.19124
H          3.60885       -0.31610        3.30893
H          4.35493       -3.10098        2.52459
H          5.40097       -2.09203        3.57096
H          7.04838       -1.96028        1.64285
H          6.15026       -3.23902        0.80004
H          5.83031       -5.44049        2.09585
H          5.63456       -4.74787        3.75217
H          8.71653       -6.42661        4.70512
H         10.12363       -2.59271        2.70974
H          8.90790       -2.31140        1.49469
H         10.89671       -5.01152        3.02878
H         10.58446       -5.54420        4.68761
H         12.49648       -3.31763        2.83717
H         13.63095       -1.28679        3.67427
H         11.12804       -1.33215        7.17759
H          9.98925       -3.35622        6.35144
H         13.85258        0.49336        5.27263
H         13.71502       -0.15199        6.92010
H         12.42607        0.86623        6.26749
H          6.86246       -7.08810        6.25937
H          5.55715       -6.39379        8.25234
H          5.29554       -3.97560        8.79246
H          6.36008       -2.25691        7.33999
H          7.68238       -2.94331        5.36371
