71

C          0.86260       -8.76351       -2.98901
O          1.95772       -8.41766       -3.82625
C          2.78016       -7.41908       -3.25056
C          3.89832       -7.12866       -4.24180
O          4.75464       -6.14952       -3.65810
C          5.82843       -5.79017       -4.50158
C          6.63582       -4.72243       -3.77553
O          7.76895       -4.40914       -4.59070
C          8.60674       -3.41693       -4.02477
C          9.77165       -3.22476       -4.98838
N         10.52362       -4.46682       -5.18732
C         11.83154       -4.66421       -5.02112
N         12.57364       -3.90658       -4.16302
C         12.17096       -3.52802       -2.79969
C         11.85770       -4.71981       -1.87398
O         11.11482       -4.60689       -0.92389
O         12.53189       -5.83676       -2.22159
C         12.34358       -6.99952       -1.33804
C         11.11959       -7.80268       -1.73317
C         13.27221       -2.66526       -2.17410
N         12.48015       -5.63263       -5.70350
C         12.22106       -6.22281       -7.05472
C         13.56082       -6.84795       -7.53305
C         14.68009       -5.93621       -8.07876
C         15.24824       -4.94077       -7.05655
C         15.80673       -6.82116       -8.63383
C         11.21811       -7.38984       -6.92960
O          9.96879       -6.89301       -6.43372
C         11.70280       -5.16950       -8.04402
H          0.28687       -9.53418       -3.51488
H          0.21073       -7.89184       -2.79644
H          1.20812       -9.16708       -2.01951
H          3.21071       -7.76243       -2.28896
H          2.20443       -6.49441       -3.04949
H          3.47393       -6.75787       -5.19379
H          4.45927       -8.05826       -4.45803
H          5.46420       -5.39676       -5.47097
H          6.47623       -6.66534       -4.71683
H          6.96038       -5.10073       -2.78882
H          6.01672       -3.82206       -3.61226
H          8.96297       -3.72915       -3.02328
H          8.07078       -2.45473       -3.91094
H         10.44573       -2.43035       -4.64990
H          9.36976       -2.92024       -5.96775
H         10.02122       -5.25512       -5.62066
H         13.57837       -4.00534       -4.28602
H         11.24530       -2.94159       -2.83227
H         12.27203       -6.63322       -0.30632
H         13.27045       -7.57212       -1.46310
H         10.19997       -7.22240       -1.58998
H         11.05651       -8.69736       -1.09828
H         11.17989       -8.13399       -2.77885
H         14.22222       -3.21610       -2.11944
H         12.98362       -2.38125       -1.15596
H         13.42304       -1.75169       -2.76264
H         13.33682       -5.95654       -5.26393
H         13.30224       -7.56140       -8.33106
H         13.96761       -7.46624       -6.71058
H         14.26875       -5.35793       -8.92251
H         15.63074       -5.46383       -6.16358
H         14.50996       -4.19183       -6.73749
H         16.09509       -4.39248       -7.49032
H         16.26532       -7.42627       -7.83659
H         16.59890       -6.20718       -9.08212
H         15.43749       -7.50896       -9.40718
H         11.63027       -8.15544       -6.24982
H         11.08296       -7.84025       -7.92667
H          9.32061       -7.61256       -6.39658
H         12.34896       -4.28353       -8.05891
H         10.67801       -4.85461       -7.82091
H         11.69890       -5.60330       -9.05254
