86

C          0.43667       -0.98011       -0.45067
C          1.37447       -0.03822       -0.31967
C          2.24280        0.45116       -1.44667
C          3.76051        0.45932       -1.22135
N          4.36686       -0.93319       -0.91568
C          4.17015       -1.87737       -2.08275
C          4.85897       -1.27537       -3.31847
N          4.51221        0.10536       -3.59446
C          4.58089        0.98687       -2.43942
C          4.22793        2.43253       -2.80687
C          5.27460        3.10400       -3.70535
C          4.91400        4.55123       -4.05607
C          5.95070        5.23335       -4.95545
C          5.58874        6.67953       -5.30943
C          6.59849        7.35694       -6.24161
C          6.21271        8.79320       -6.61064
C          7.15893        9.45013       -7.62085
C          6.74827       10.87825       -7.99414
C          7.60993       11.50328       -9.09611
C          7.18250       12.92796       -9.45923
C          8.00076       13.51877      -10.61528
N          7.59987       14.87220      -10.97111
C          6.57816       15.19900      -11.83629
C          6.42323       16.57381      -11.82490
C          7.38073       17.09863      -10.91274
C          8.08792       16.02672      -10.39791
C          4.02881       -1.57889        0.41057
C          4.47734       -0.70213        1.58020
C          4.80246       -1.45399        2.88235
C          3.63155       -1.72252        3.90130
C          2.40947       -2.63614        3.50440
C          2.67390       -4.13413        3.10502
F          3.47458       -4.74207        3.98524
F          1.50070       -4.77788        3.04710
F          3.24723       -4.19523        1.87521
F          1.57678       -2.64103        4.56588
F          1.76115       -2.04320        2.44912
F          4.17777       -2.23125        5.02728
F          3.08829       -0.50090        4.18807
F          5.43469       -2.64039        2.61574
F          5.68481       -0.67466        3.57835
H         -0.20115       -1.26910        0.38392
H          0.25729       -1.48435       -1.40343
H          1.49730        0.46299        0.64702
H          1.99361        1.50876       -1.63804
H          1.98665       -0.08381       -2.37289
H          4.00681        1.07068       -0.34073
H          5.38349       -0.74738       -0.88232
H          3.09012       -2.01551       -2.21109
H          4.61751       -2.84016       -1.80144
H          4.62964       -1.89906       -4.19214
H          5.95361       -1.33983       -3.16882
H          3.64558        0.20948       -4.12020
H          5.64243        0.98526       -2.10742
H          4.11215        3.01734       -1.87855
H          3.24372        2.45461       -3.30643
H          5.39697        2.51491       -4.62745
H          6.25349        3.08264       -3.19544
H          4.79392        5.13608       -3.12711
H          3.92962        4.57209       -4.55579
H          6.06672        4.64824       -5.88447
H          6.93690        5.21209       -4.45952
H          5.49224        7.27000       -4.38154
H          4.59158        6.69828       -5.78311
H          6.69753        6.75872       -7.16436
H          7.59667        7.35214       -5.77031
H          6.16883        9.40742       -5.69408
H          5.18871        8.79726       -7.02400
H          7.19559        8.83160       -8.53509
H          8.18694        9.45461       -7.21827
H          6.78346       11.51701       -7.09464
H          5.69344       10.87790       -8.32042
H          7.56323       10.86458       -9.99580
H          8.66802       11.50293       -8.78096
H          7.27763       13.58817       -8.58232
H          6.11702       12.94019       -9.74043
H          7.90268       12.88790      -11.51208
H          9.07050       13.53874      -10.35712
H          6.05591       14.42719      -12.39291
H          5.71061       17.13703      -12.41880
H          7.54600       18.14350      -10.67042
H          8.90210       15.98760       -9.68140
H          4.57207       -2.53189        0.41609
H          2.95537       -1.78313        0.41298
H          3.75231        0.08696        1.81583
H          5.42926       -0.20435        1.33225
