36

C          3.74839        1.28751       -2.49945
C          4.26198        0.80435       -1.16040
O          4.46424       -0.63311       -1.25840
C          4.96776       -1.17735       -0.07188
N          5.14864       -2.62334       -0.35889
C          6.14168       -3.10445       -1.14124
C          7.29044       -2.35975       -1.70878
C          8.46838       -2.23859       -0.70480
C          9.49793       -1.19867       -1.15264
C          8.94474        0.22411       -1.09924
O          7.83498        0.49766       -0.69054
O          9.75905        1.20771       -1.53904
N          5.88034       -4.41228       -1.26953
N          4.75832       -4.79853       -0.62192
C          4.30514       -3.69014       -0.06881
C          3.04722       -3.64692        0.77537
O          2.77678       -2.62603        1.37941
C          2.22447       -4.90081        0.79513
H          3.57240        2.37038       -2.45703
H          2.80183        0.79708       -2.76084
H          4.47868        1.09289       -3.29589
H          3.53449        1.00426       -0.35438
H          5.22099        1.28038       -0.89660
H          4.27246       -1.10311        0.77640
H          5.95613       -0.76160        0.19225
H          6.92799       -1.36091       -1.98860
H          7.61842       -2.86536       -2.62874
H          8.95711       -3.21610       -0.58877
H          8.08307       -1.95017        0.28320
H          9.86520       -1.40884       -2.17116
H         10.37998       -1.24873       -0.49380
H         10.62275        0.85673       -1.82188
H          6.42128       -5.09859       -1.79216
H          2.83576       -5.76768        1.08530
H          1.83850       -5.11609       -0.21317
H          1.39191       -4.76929        1.49231
