40

N          3.58562        4.21290       -1.28835
C          2.99128        2.96718       -0.77786
C          3.34380        1.78303       -1.68395
C          4.85142        1.51047       -1.74783
C          5.20297        0.39062       -2.73100
C          6.70598        0.11385       -2.93761
C          6.95969       -1.00086       -3.98397
C          6.38284       -0.77080       -5.37068
F          6.89719        0.43533       -5.92209
C          7.45860       -0.22698       -1.60785
N          8.61471        0.68349       -1.60914
C          8.50658        1.58015       -2.60339
N          9.37946        2.57635       -2.82342
C         10.68021        2.72269       -2.16209
C         10.63358        3.40644       -0.80584
F          9.98185        2.56160        0.12149
N          7.42264        1.35486       -3.35741
H          3.51675        4.95042       -0.58702
H          3.05878        4.54543       -2.09829
H          1.89272        3.01352       -0.66336
H          3.40352        2.78920        0.22820
H          2.96304        1.98419       -2.70090
H          2.80812        0.88862       -1.32706
H          5.20145        1.26169       -0.73109
H          5.35855        2.44412       -2.03383
H          4.76039        0.63562       -3.70975
H          4.73313       -0.55738       -2.41713
H          6.52011       -1.93682       -3.60235
H          8.04478       -1.17242       -4.06780
H          5.28861       -0.67344       -5.37155
H          6.67184       -1.58150       -6.05310
H          7.79181       -1.27310       -1.58642
H          6.83146       -0.03839       -0.72656
H          9.10649        0.93722       -0.75324
H          9.13614        3.24268       -3.54847
H         11.32287        3.31258       -2.83018
H         11.14514        1.73009       -2.06178
H         10.07558        4.35339       -0.83160
H         11.65360        3.58060       -0.43393
H          7.37582        1.62770       -4.33821
