34

C          3.07258        2.34077        0.93078
C          3.59298        0.94358        0.60889
S          5.39289        1.08004        0.25703
C          5.75603       -0.57890       -0.03568
N          5.01280       -1.65136       -0.02654
N          5.84436       -2.73165       -0.33502
C          7.02640       -2.23146       -0.50741
O          7.09367       -0.87520       -0.34347
N          8.17922       -2.95677       -0.83085
C          9.41705       -2.42187       -1.01052
N         10.43460       -3.27906       -1.31105
C         11.70145       -2.86407       -1.51117
C         12.83106       -2.47135       -1.68847
N          9.69369       -1.12457       -0.91239
C          7.99146       -4.40413       -0.97269
C          7.69322       -4.92719       -2.23384
C          7.50622       -6.30606       -2.35871
C          7.61105       -7.13257       -1.23550
C          7.90284       -6.58976        0.01999
C          8.09451       -5.21354        0.16149
H          1.99654        2.27796        1.13910
H          3.21140        3.03251        0.08930
H          3.56269        2.76461        1.81713
H          3.11461        0.51401       -0.27953
H          3.47288        0.24886        1.44893
H         10.19488       -4.27094       -1.38410
H         13.83889       -2.14273       -1.84425
H          8.97067       -0.44926       -0.68491
H         10.65471       -0.82581       -1.06336
H          7.59327       -4.26639       -3.09578
H          7.26777       -6.73027       -3.33398
H          7.45879       -8.20712       -1.33852
H          7.97232       -7.23518        0.89549
H          8.30330       -4.77288        1.13704
