93

C         15.06297        2.19627       10.96683
C         14.52873        1.99643        9.54591
C         15.00105        3.07397        8.56355
C         14.46706        2.89171        7.13905
C         14.94150        3.97565        6.16593
C         14.40687        3.80729        4.73995
C         14.88746        4.89826        3.77787
C         14.35970        4.74262        2.34806
C         14.86723        5.82679        1.39202
C         14.36365        5.66780       -0.04600
C         14.91929        6.72348       -1.00711
C         14.44987        6.54056       -2.45367
C         15.06794        7.54939       -3.42790
C         14.63804        7.31819       -4.88016
C         15.23234        8.30172       -5.89776
C         16.78043        8.18913       -5.98476
C         17.34604        9.09764       -7.02560
C         17.59203        8.63508       -8.31673
C         18.08836        9.50446       -9.29127
N         18.30956       10.77496       -8.92050
N         18.10414       11.29006       -7.71582
C         17.62404       10.48213       -6.77417
C         17.41696       11.15129       -5.42180
O         18.04772       10.46914       -4.36032
C         19.48331       10.59919       -4.34957
C         20.01805        9.84745       -3.14372
C         21.54633        9.91441       -3.04069
C         22.10451        9.10490       -1.86513
C         23.63242        9.15882       -1.75768
C         24.18531        8.32466       -0.59957
C         18.40076        9.08464      -10.70438
C         18.80260       10.19344      -11.67718
O         19.04635       11.35106      -11.34771
O         18.87348        9.71836      -12.90993
C         19.29021       10.65479      -13.98021
C         18.09878       11.39842      -14.54768
H         14.70920        1.40887       11.64659
H         14.73994        3.16281       11.38198
H         16.16309        2.18189       10.98572
H         13.42572        1.98197        9.56518
H         14.83604        1.00494        9.17202
H         16.10537        3.08580        8.54056
H         14.69872        4.06701        8.94119
H         13.36300        2.87954        7.16178
H         14.77091        1.90044        6.75853
H         16.04568        3.98492        6.14158
H         14.64181        4.96632        6.55128
H         13.30287        3.79878        4.76179
H         14.70779        2.81852        4.35073
H         15.99182        4.90401        3.75809
H         14.58940        5.88662        4.17021
H         13.25566        4.75181        2.36114
H         14.64788        3.75021        1.95849
H         15.97177        5.82028        1.39162
H         14.57276        6.81965        1.77529
H         13.26034        5.70540       -0.05611
H         14.63409        4.66325       -0.41666
H         16.02318        6.69309       -0.97808
H         14.63646        7.73019       -0.65284
H         13.34948        6.61249       -2.49788
H         14.69893        5.51823       -2.78862
H         16.16659        7.48954       -3.34062
H         14.79720        8.57556       -3.12296
H         13.54035        7.38786       -4.95067
H         14.89462        6.28783       -5.18168
H         14.95028        9.33226       -5.62828
H         14.80424        8.11098       -6.89468
H         17.04401        7.14960       -6.23096
H         17.22011        8.43655       -5.01056
H         17.40022        7.59271       -8.57606
H         18.67811       11.40785       -9.67030
H         16.34105       11.16566       -5.18722
H         17.76120       12.19631       -5.51152
H         19.74966       11.67206       -4.30861
H         19.91097       10.18484       -5.28390
H         19.69189        8.79613       -3.20932
H         19.55650       10.26245       -2.23388
H         21.86416       10.96675       -2.94461
H         21.99649        9.54529       -3.97938
H         21.78249        8.05306       -1.96222
H         21.65821        9.47117       -0.92431
H         23.95153       10.20841       -1.64339
H         24.07459        8.81047       -2.70676
H         23.79145        8.67143        0.36714
H         25.28090        8.38284       -0.55061
H         23.91371        7.26386       -0.70535
H         17.54382        8.53612      -11.12296
H         19.22556        8.35202      -10.68192
H         19.75538        9.99044      -14.71659
H         20.04453       11.33095      -13.55985
H         17.33565       10.70340      -14.92038
H         18.43693       12.01325      -15.39321
H         17.64819       12.06919      -13.80550
