83

C         -2.16236       -2.44186       -7.04719
C         -1.39257       -2.24829       -5.73895
C         -0.85747       -3.56604       -5.16932
C         -0.12577       -3.36198       -3.83887
N          0.43974       -4.61151       -3.29882
C         -0.29138       -5.40964       -2.49378
S         -1.88958       -5.09886       -2.07986
S          0.62669       -6.84171       -1.90948
C         -0.62072       -7.86994       -1.07909
C         -0.40818       -7.97964        0.43804
C         -0.72371       -6.71242        1.24529
C         -2.21063       -6.32052        1.28297
N         -3.01907       -7.40265        1.87155
C         -3.46495       -7.24196        3.09028
S         -3.15632       -5.69797        3.76572
C         -2.50971       -5.05906        2.13571
C         -3.50148       -4.08707        1.49369
C         -3.93298       -2.94713        2.41944
O         -2.78914       -2.39726        3.05367
Si        -2.85853       -1.14548        4.19475
C         -3.84990       -1.72284        5.68790
C         -1.06585       -0.84933        4.64340
C         -3.65624        0.36978        3.42263
C         -4.15944       -8.32901        3.87221
C         -4.59773       -9.51847        3.00322
O         -4.13152       -9.79142        1.90284
O         -5.52207      -10.22914        3.64026
C         -6.02201      -11.45142        2.97717
C         -7.23805      -11.14011        2.12944
C         -3.24381       -8.83407        5.02309
C          1.81565       -4.91809       -3.72683
C          2.89706       -4.31792       -2.81928
C          4.30746       -4.63893       -3.32601
C          5.40690       -4.06581       -2.42960
H         -2.52983       -1.48383       -7.43890
H         -3.03162       -3.09978       -6.90264
H         -1.52672       -2.89588       -7.82158
H         -2.04773       -1.77008       -4.99167
H         -0.55360       -1.55059       -5.90166
H         -0.17690       -4.03496       -5.89972
H         -1.68858       -4.26981       -5.00730
H         -0.81332       -2.95052       -3.08776
H          0.71321       -2.66001       -3.96145
H         -0.53594       -8.86224       -1.54215
H         -1.59590       -7.43466       -1.35433
H          0.63664       -8.26085        0.63695
H         -1.00787       -8.83122        0.80419
H         -0.18507       -5.85841        0.80416
H         -0.35555       -6.82983        2.27716
H         -2.55358       -6.14223        0.24858
H         -3.20514       -8.32458        1.43338
H         -1.58508       -4.52688        2.38901
H         -4.39743       -4.62298        1.14142
H         -2.99523       -3.68103        0.60243
H         -4.64825       -3.33333        3.17196
H         -4.47001       -2.18889        1.82291
H         -3.39455       -2.60854        6.15437
H         -4.89047       -1.96806        5.43000
H         -3.88606       -0.93132        6.45066
H         -0.60521       -1.75239        5.06792
H         -0.98011       -0.04872        5.39191
H         -0.48009       -0.54900        3.76368
H         -4.69973        0.18557        3.12906
H         -3.10552        0.70139        2.53112
H         -3.66441        1.20498        4.13807
H         -5.06383       -7.89725        4.32739
H         -6.26207      -12.11268        3.81766
H         -5.20150      -11.87882        2.38840
H         -8.03025      -10.67245        2.72771
H         -7.63374      -12.07838        1.71673
H         -6.98352      -10.48326        1.28819
H         -2.32589       -9.28359        4.62328
H         -3.78429       -9.58614        5.60850
H         -2.96998       -8.00488        5.68623
H          1.92223       -4.52835       -4.75052
H          1.93171       -6.00984       -3.79359
H          2.76982       -4.70760       -1.79671
H          2.76233       -3.22533       -2.75999
H          4.42457       -4.24857       -4.35072
H          4.42563       -5.73272       -3.40163
H          5.33670       -2.97040       -2.36242
H          6.40449       -4.31182       -2.81663
H          5.33717       -4.46709       -1.40801
