38

C          1.05514       -2.37466        0.56462
C          2.57557       -2.51947        0.45877
C          3.20120       -1.43314       -0.42804
C          4.72954       -1.42212       -0.38183
O          5.33541       -0.34265       -1.09924
C          5.05806       -0.38471       -2.46498
N          5.26802       -1.74484       -3.01392
C          5.49260       -2.80477       -2.21672
N          5.88619       -3.99178       -2.70752
N          5.34074       -2.67273       -0.87468
C          6.00024       -3.58093        0.06798
C          5.25077       -4.90276        0.26123
O          4.90214       -5.61026       -0.67473
O          5.06275       -5.18231        1.54624
C          4.40920       -6.45351        1.84312
C          5.14556       -1.87237       -4.48127
C          4.09892       -2.79577       -4.90140
C          3.24292       -3.57418       -5.24929
H          0.62422       -3.17133        1.18411
H          0.57821       -2.42752       -0.42433
H          0.77749       -1.41315        1.01848
H          2.81887       -3.51236        0.04769
H          3.02230       -2.47811        1.46642
H          2.87030       -0.43678       -0.09489
H          2.84362       -1.56248       -1.46236
H          5.07229       -1.29080        0.65313
H          5.76544        0.30642       -2.94628
H          4.02286       -0.07663       -2.70585
H          5.93931       -4.12060       -3.71113
H          5.60070       -4.81591       -2.14869
H          6.10127       -3.06204        1.02695
H          7.01213       -3.82616       -0.29484
H          4.41389       -6.52442        2.93305
H          4.97031       -7.27824        1.38935
H          3.38463       -6.44051        1.45356
H          6.11968       -2.14947       -4.92012
H          4.92565       -0.86351       -4.86306
H          2.47635       -4.25000       -5.57182
