49

Br         2.87052        1.27243       -0.03671
C          3.40119        0.99728        1.84096
C          3.85192       -0.43075        2.10594
C          5.12141       -0.81096        1.33419
N          5.53499       -2.19674        1.61327
C          6.41636       -2.55846        2.61402
N          6.42676       -3.84295        2.82542
N          5.53018       -4.34853        1.91733
C          4.95533       -3.36381        1.17872
N          4.01116       -3.52323        0.24440
C          3.81644       -2.69227       -0.96383
C          3.08613       -3.50325       -2.03261
C          2.86835       -2.70612       -3.32336
C          2.14037       -3.51271       -4.40476
C          1.92216       -2.73049       -5.70522
C          1.19517       -3.54032       -6.78132
C          5.33210       -5.79870        1.82871
C          4.38106       -6.35604        2.89092
C          2.92874       -5.83828        2.78837
C          2.34863       -6.03497        1.46511
C          1.92376       -6.21079        0.34342
H          2.51610        1.25060        2.43155
H          4.18829        1.73529        2.03303
H          3.03841       -1.12959        1.85834
H          4.04218       -0.52911        3.18834
H          5.96750       -0.17319        1.62395
H          4.98035       -0.68214        0.25560
H          7.03268       -1.84044        3.14574
H          3.48923       -4.40691        0.27020
H          4.80257       -2.37595       -1.33847
H          3.23646       -1.78805       -0.72008
H          2.11107       -3.82680       -1.63083
H          3.66253       -4.41791       -2.25194
H          3.84343       -2.36802       -3.71445
H          2.29435       -1.79129       -3.09772
H          1.16404       -3.84977       -4.01414
H          2.71352       -4.43081       -4.62386
H          2.89847       -2.39417       -6.09284
H          1.35151       -1.81287       -5.48447
H          1.75885       -4.44594       -7.05035
H          1.05748       -2.95247       -7.69827
H          0.19949       -3.85935       -6.43946
H          6.32833       -6.24460        1.93601
H          4.97009       -6.01706        0.81363
H          4.77516       -6.12924        3.89168
H          4.38676       -7.45017        2.78273
H          2.87980       -4.76834        3.05402
H          2.30836       -6.35615        3.53594
H          1.49879       -6.40316       -0.62078
