86

C         13.22476        4.78902        3.37668
C         12.23049        3.82844        2.72158
C         12.60616        3.46456        1.28181
C         11.62860        2.49107        0.61703
C         12.02600        2.11128       -0.81272
C         11.07446        1.10261       -1.46461
C         11.51891        0.68212       -2.87098
C         10.62976       -0.40418       -3.44975
O         11.14775       -0.79697       -4.74186
C         10.45613       -1.89959       -5.27990
N         11.07231       -2.29485       -6.53172
C         12.30985       -2.84044       -6.61315
N         12.76888       -3.29661       -7.79106
C         14.09111       -3.95915       -7.89497
C         14.70117       -3.78488       -9.27814
C         15.01531       -2.34152       -9.69089
C         15.72095       -2.22241      -11.05858
C         14.81245       -2.66346      -12.22190
C         15.51029       -2.74343      -13.59377
C         14.62510       -3.34222      -14.64973
C         14.24732       -2.80516      -15.82485
C         14.66652       -1.44775      -16.32436
C         13.35567       -3.56990      -16.76876
C         16.23670       -0.78904      -11.24552
O         14.93614       -3.38750       -6.91187
C         14.42003       -3.53993       -5.60052
N         13.07490       -2.94838       -5.52966
C         15.38737       -2.81281       -4.66454
C         14.85421       -2.54678       -3.26381
O         13.68064       -2.28588       -3.01734
O         15.83479       -2.56853       -2.36414
C         15.49090       -2.20803       -0.97988
C         15.07562       -3.42782       -0.17279
C         14.82414       -3.05132        1.29042
H         12.93506        5.02617        4.40928
H         13.28649        5.73732        2.82261
H         14.23616        4.35683        3.40570
H         11.22198        4.27457        2.73210
H         12.15927        2.90495        3.32098
H         13.62009        3.02606        1.27240
H         12.67097        4.38712        0.67862
H         10.61697        2.93256        0.61212
H         11.55579        1.57452        1.22922
H         13.04770        1.69127       -0.80536
H         12.07816        3.02219       -1.43381
H         10.05814        1.52976       -1.50556
H         11.00446        0.20776       -0.82156
H         12.55138        0.30056       -2.83430
H         11.51937        1.55184       -3.54668
H          9.58852       -0.05039       -3.56840
H         10.61603       -1.28691       -2.78250
H          9.40005       -1.66229       -5.50103
H         10.47783       -2.75777       -4.57946
H         10.65501       -1.95634       -7.39177
H         12.14005       -3.34497       -8.58580
H         13.95181       -5.03577       -7.67625
H         14.01864       -4.26895       -9.99578
H         15.62180       -4.38885       -9.28670
H         15.65819       -1.88791       -8.92172
H         14.08978       -1.73961       -9.71490
H         16.59669       -2.89838      -11.03945
H         13.95430       -1.97127      -12.29280
H         14.38649       -3.65866      -12.00918
H         16.41601       -3.36855      -13.48254
H         15.86177       -1.74822      -13.89768
H         14.25318       -4.34861      -14.42004
H         15.26542       -0.87819      -15.60468
H         13.78388       -0.84340      -16.58738
H         15.25665       -1.54515      -17.25002
H         13.08049       -4.55381      -16.36785
H         13.85214       -3.72275      -17.74065
H         12.43078       -3.00949      -16.98054
H         15.40007       -0.07443      -11.29578
H         16.82001       -0.68340      -12.16872
H         16.88546       -0.48851      -10.41046
H         14.35173       -4.61451       -5.34549
H         12.86561       -2.43504       -4.65468
H         15.61362       -1.83118       -5.11249
H         16.32805       -3.37273       -4.61469
H         14.69807       -1.44860       -1.00676
H         16.41655       -1.76332       -0.59335
H         15.86806       -4.18849       -0.23899
H         14.16588       -3.86207       -0.61368
H         15.72576       -2.63152        1.75845
H         14.52905       -3.93405        1.87103
H         14.01929       -2.30809        1.38217
