86

C          0.27736        1.81251      -11.00365
C          1.80545        1.72388      -10.97622
C          2.43845        2.46893       -9.79549
C          3.96691        2.36836       -9.74855
C          4.60145        3.17699       -8.61200
C          6.12957        3.07032       -8.55503
C          6.76083        3.92126       -7.44778
C          8.28933        3.82338       -7.38277
C          8.91236        4.73328       -6.31849
C         10.44229        4.65748       -6.24979
C         11.04438        5.65828       -5.25440
C         12.56832        5.57888       -5.07466
C         13.36295        5.83975       -6.36063
C         14.86837        6.00887       -6.11395
C         15.64807        6.20047       -7.42833
O         15.34407        5.18026       -8.38971
C         15.81362        3.91024       -7.96746
C         17.33053        3.91440       -8.00734
N         17.92978        5.05240       -7.21600
C         17.19601        6.39476       -7.32316
C         17.53875        7.34538       -6.16182
C         19.00714        7.74341       -5.85152
C         19.47299        7.29501       -4.44955
P         19.60784        5.51098       -4.13453
O         18.51392        4.65763       -4.72162
O         21.07179        5.17413       -4.68957
C         21.61455        3.81413       -4.58093
C         22.79228        3.70176       -5.52434
O         19.60679        5.27157       -2.56301
C         20.60004        5.88073       -1.66922
C         20.76557        4.98117       -0.46447
N         19.31898        5.25809       -7.58481
H         -0.14220        1.28240      -11.86992
H         -0.06136        2.85816      -11.05896
H         -0.16527        1.37110      -10.09806
H          2.21467        2.12785      -11.91815
H          2.11276        0.66449      -10.94515
H          2.01755        2.08039       -8.85092
H          2.14374        3.53275       -9.83937
H          4.38361        2.70998      -10.71292
H          4.26025        1.30787       -9.65305
H          4.17682        2.84856       -7.64690
H          4.31544        4.23829       -8.71983
H          6.55148        3.37240       -9.53020
H          6.41790        2.01321       -8.41681
H          6.33510        3.62715       -6.47234
H          6.47197        4.97703       -7.59479
H          8.71231        4.07869       -8.37075
H          8.58208        2.77603       -7.19074
H          8.49043        4.48493       -5.32902
H          8.61251        5.77717       -6.51850
H         10.85097        4.83514       -7.25936
H         10.74865        3.63246       -5.97339
H         10.57035        5.51261       -4.26996
H         10.77440        6.68225       -5.56755
H         12.84203        4.58630       -4.67474
H         12.86937        6.30955       -4.30471
H         12.98153        6.75276       -6.85088
H         13.19182        5.02549       -7.07910
H         15.26197        5.16315       -5.52436
H         15.01953        6.89793       -5.48501
H         15.28086        7.12386       -7.90365
H         15.44026        3.17145       -8.68891
H         15.42894        3.63195       -6.97195
H         17.65737        4.05326       -9.04791
H         17.77024        2.98843       -7.61037
H         18.01862        4.81398       -6.15394
H         17.53520        6.80915       -8.28520
H         17.08434        6.93723       -5.24959
H         16.96726        8.25894       -6.38524
H         19.08310        8.83902       -5.86975
H         19.69708        7.36993       -6.61395
H         18.77285        7.66674       -3.68329
H         20.45629        7.72904       -4.21383
H         20.81817        3.09380       -4.82330
H         21.91613        3.65088       -3.53570
H         22.49000        3.86679       -6.56747
H         23.22737        2.69597       -5.45096
H         23.57187        4.43163       -5.27235
H         20.22208        6.87387       -1.38440
H         21.54768        6.00857       -2.21513
H         19.80985        4.84502        0.05703
H         21.47867        5.43548        0.23703
H         21.14975        3.99468       -0.75484
H         19.36825        5.23997       -8.60839
H         19.84201        4.45000       -7.23385
