78

N          5.62516        1.15389        0.80624
C          4.50768        1.33003       -0.14743
C          4.60316        0.29514       -1.27467
C          4.25569       -1.12639       -0.79359
C          4.95579       -2.24721       -1.56521
C          4.50298       -3.67352       -1.18489
C          5.58522       -4.59974       -1.75744
N          6.82796       -3.72263       -1.85147
C          6.49008       -2.31709       -1.38180
C          6.96160       -2.11114        0.06946
C          8.40487       -2.53409        0.33125
O          8.82290       -3.57999       -0.20254
C          9.26911       -1.75185        1.23191
C          8.80185       -0.62507        1.94058
C          9.65809        0.06144        2.79933
C         10.98391       -0.35753        2.95190
C         11.45761       -1.47389        2.24970
C         10.60707       -2.17090        1.40043
C          5.26420       -5.10957       -3.16599
O          6.48819       -5.52584       -3.74420
C          6.42030       -5.83687       -5.15781
C          6.56470       -4.59979       -6.03757
C          6.54014       -4.93272       -7.53493
C          6.72438       -3.69727       -8.42253
C          6.66883       -4.00326       -9.92222
C          6.84716       -2.76104      -10.80095
C          6.76387       -3.05334      -12.30223
C          6.92601       -1.80736      -13.17865
C          6.83115       -2.09633      -14.67995
C          6.98307       -0.84958      -15.55855
C          6.88676       -1.14882      -17.05674
H          5.37940        1.54701        1.71495
H          6.43454        1.68810        0.48455
H          4.47155        2.34547       -0.57722
H          3.56430        1.18859        0.40168
H          5.62788        0.33443       -1.68260
H          3.94112        0.58537       -2.10412
H          3.16851       -1.27901       -0.86822
H          4.50051       -1.21466        0.27645
H          4.76910       -2.10051       -2.64422
H          3.51349       -3.91351       -1.59547
H          4.43132       -3.78125       -0.09287
H          5.83242       -5.44375       -1.10200
H          7.15628       -3.77418       -2.82928
H          7.65380       -4.02086       -1.24165
H          7.02417       -1.61835       -2.03925
H          6.34372       -2.70864        0.76310
H          6.77530       -1.06332        0.33854
H          7.77061       -0.28546        1.83476
H          9.29326        0.92612        3.35393
H         11.65085        0.18581        3.62234
H         12.49132       -1.79754        2.37245
H         10.95606       -3.04588        0.85257
H          4.78955       -4.30517       -3.76164
H          4.54294       -5.94310       -3.09086
H          5.48089       -6.37701       -5.36801
H          7.25068       -6.53558       -5.33044
H          7.51525       -4.09986       -5.78446
H          5.75680       -3.88036       -5.81716
H          5.58563       -5.42628       -7.78588
H          7.33124       -5.66821       -7.76037
H          7.68962       -3.21783       -8.18236
H          5.94672       -2.95291       -8.17533
H          5.70379       -4.48372      -10.16056
H          7.44591       -4.74576      -10.17408
H          7.81950       -2.28937      -10.57345
H          6.07981       -2.01312      -10.53306
H          5.79452       -3.53251      -12.52600
H          7.53558       -3.79483      -12.57373
H          7.89767       -1.33040      -12.95921
H          6.15707       -1.06465      -12.90113
H          5.86181       -2.57876      -14.89802
H          7.60318       -2.83494      -14.95949
H          7.95129       -0.36797      -15.33966
H          6.21067       -0.11308      -15.27864
H          7.66777       -1.85606      -17.37347
H          7.00152       -0.23706      -17.65875
H          5.91465       -1.59580      -17.31314
