83

C         13.76707       -6.20041      -16.65397
C         13.17635       -4.81984      -16.35658
C         13.55902       -4.28162      -14.97360
C         12.97581       -2.89953      -14.66329
C         13.38564       -2.35842      -13.29006
C         12.80701       -0.97665      -12.96962
C         13.26870       -0.42308      -11.61806
C         12.68778        0.95351      -11.28061
C         13.20836        1.52585       -9.95889
C         12.63203        2.90070       -9.60874
C         13.20766        3.49127       -8.31821
C         12.66724        4.88730       -7.98976
C         13.20090        5.49605       -6.68246
C         14.73342        5.60426       -6.58004
C         15.34141        6.44500       -7.70815
C         16.87399        6.59281       -7.75788
S         17.46094        7.45847       -6.16510
C         17.96628        5.97915       -5.52484
N         17.91402        4.92707       -6.30511
C         17.56184        5.17549       -7.70436
C         18.85103        5.03991       -8.54903
O         19.95639        5.27728       -8.10843
O         18.53916        4.64442       -9.78583
C         19.65128        4.53320      -10.74855
C         20.26854        3.14458      -10.72074
C         21.34043        2.98442      -11.80870
C         21.99120        1.59951      -11.79397
C         17.36987        7.40846       -8.96312
C         16.87830        8.87934       -9.10820
N         16.82349        9.50658       -7.76339
N         17.82897        9.50198      -10.02658
N         15.52292        8.90117       -9.64132
H         13.47781       -6.55706      -17.65205
H         13.42406       -6.94745      -15.92256
H         14.86660       -6.18165      -16.61385
H         12.07695       -4.86343      -16.43735
H         13.50623       -4.10313      -17.12791
H         14.66006       -4.23887      -14.89319
H         13.23001       -4.99843      -14.20038
H         11.87424       -2.94473      -14.72530
H         13.29179       -2.18591      -15.44485
H         14.48802       -2.31254      -13.23341
H         13.07498       -3.07334      -12.50787
H         11.70428       -1.02762      -12.98811
H         13.08867       -0.26793      -13.76853
H         14.37205       -0.36384      -11.61021
H         13.00120       -1.13699      -10.81931
H         11.58661        0.88777      -11.24311
H         12.91903        1.65882      -12.09850
H         14.31075        1.59570      -10.00617
H         12.98759        0.81813       -9.14072
H         11.53455        2.82924       -9.52010
H         12.82055        3.59976      -10.44302
H         14.30918        3.52053       -8.41428
H         13.00156        2.80963       -7.47423
H         11.56897        4.83972       -7.92029
H         12.87209        5.56644       -8.83547
H         12.84768        4.89237       -5.83144
H         12.76099        6.49744       -6.54675
H         15.15954        4.58774       -6.57413
H         14.98469        6.04995       -5.60445
H         14.89162        7.44724       -7.71640
H         15.06689        6.01107       -8.68543
H         18.33815        5.88630       -4.50257
H         18.29117        4.02526       -6.01724
H         16.83692        4.42227       -8.04411
H         20.38595        5.31431      -10.51185
H         19.17611        4.75059      -11.71336
H         19.47443        2.39426      -10.86416
H         20.71566        2.96289       -9.73067
H         22.11488        3.75753      -11.67510
H         20.88835        3.17055      -12.79683
H         22.48770        1.40057      -10.83340
H         22.74875        1.51178      -12.58338
H         21.24798        0.80565      -11.95698
H         17.10063        6.86894       -9.88275
H         18.46858        7.44089       -8.93306
H         17.48411       10.27704       -7.68110
H         15.88714        9.84822       -7.54813
H         18.78303        9.52363       -9.66213
H         17.54999       10.45485      -10.26496
H         15.22086        9.86551       -9.79903
H         15.49767        8.43315      -10.54864
