95

C          0.30338        1.05648       -0.12166
C          1.78454        0.70281       -0.27646
C          2.41255        0.14377        1.00497
C          3.88524       -0.24839        0.85223
C          4.51315       -0.79157        2.13964
C          5.96876       -1.24086        1.97675
C          6.59895       -1.74958        3.27716
C          8.03216       -2.26671        3.11471
C          8.66829       -2.70704        4.43694
C         10.07762       -3.29065        4.29303
C         10.72950       -3.62358        5.63875
C         12.10744       -4.28428        5.52557
C         12.80620       -4.44205        6.87943
C         14.15699       -5.16284        6.81346
C         14.92122       -5.10749        8.14016
C         16.23387       -5.89695        8.14508
C         17.05232       -5.66761        9.42158
C         18.28845       -6.57345        9.48764
C         19.37716       -6.32447       10.57570
C         20.53668       -7.29536       10.28692
N         20.05528       -8.63153       10.80816
C         19.09354       -8.33524       11.96662
C         18.99293       -6.79567       12.03261
C         17.65800       -6.35633       12.69904
C         17.55536       -6.87378       14.14289
O         17.52053       -8.30693       14.16353
C         17.42875       -4.83755       12.76045
C         19.92415       -4.85771       10.48163
C         21.26772       -4.60366       11.13674
C         21.33722       -4.38676       12.52327
C         22.55405       -4.20363       13.18048
C         23.73786       -4.22157       12.44339
C         23.68307       -4.39246       11.05987
C         22.46769       -4.57741       10.38291
C         22.48352       -4.69114        8.87597
H         -0.11575        1.46271       -1.05260
H          0.15210        1.80923        0.66674
H         -0.29118        0.17155        0.15142
H          2.34660        1.59721       -0.59507
H          1.90455       -0.03308       -1.08977
H          1.83486       -0.73701        1.33785
H          2.31343        0.88963        1.81378
H          4.46342        0.62640        0.50551
H          3.97844       -1.00538        0.05333
H          3.91138       -1.64122        2.50799
H          4.45472       -0.01941        2.92711
H          6.57018       -0.40227        1.58352
H          6.02072       -2.03367        1.20966
H          5.96973       -2.55460        3.69636
H          6.58678       -0.93891        4.02713
H          8.65654       -1.48114        2.65365
H          8.03693       -3.11152        2.40361
H          8.01667       -3.45366        4.92435
H          8.70106       -1.84414        5.12565
H         10.71816       -2.57645        3.74614
H         10.03559       -4.19887        3.66634
H         10.05891       -4.28326        6.21727
H         10.82021       -2.69593        6.23135
H         12.74917       -3.68470        4.85620
H         12.00424       -5.27079        5.04079
H         12.14143       -4.98134        7.57684
H         12.95293       -3.44028        7.32092
H         14.77777       -4.71132        6.01994
H         14.00062       -6.21394        6.51482
H         14.27403       -5.47937        8.95390
H         15.13248       -4.05135        8.38419
H         16.84232       -5.61428        7.26813
H         16.01529       -6.97332        8.02903
H         16.40304       -5.83722       10.29228
H         17.35366       -4.60893        9.45902
H         18.80511       -6.50260        8.51437
H         17.92325       -7.61680        9.55003
H         21.43541       -7.02742       10.85710
H         20.79336       -7.39788        9.22644
H         20.83713       -9.22219       11.10976
H         19.56266       -9.14329       10.06798
H         19.49143       -8.79592       12.87324
H         18.13860       -8.81697       11.73245
H         19.81191       -6.44212       12.68233
H         16.82493       -6.81611       12.14009
H         16.63423       -6.46426       14.58770
H         18.41171       -6.49592       14.73505
H         17.24486       -8.59700       15.04607
H         18.22168       -4.32492       13.32285
H         16.48041       -4.63018       13.27381
H         17.36034       -4.37620       11.77189
H         19.17976       -4.17982       10.91175
H         19.97794       -4.60321        9.41358
H         20.41346       -4.33481       13.10154
H         22.57306       -4.03346       14.25709
H         24.69929       -4.07850       12.93737
H         24.60820       -4.36889       10.48073
H         23.50812       -4.60300        8.49542
H         21.88902       -3.89499        8.40311
H         22.08503       -5.64736        8.50402
