102

C          0.17660       -0.38457       -0.26168
C          1.70410       -0.46407       -0.32326
C          2.35784       -0.61011        1.05496
C          3.88827       -0.66444        1.01467
C          4.52958       -0.74592        2.40332
C          6.06103       -0.77622        2.38209
C          6.68599       -0.77648        3.78077
C          8.21767       -0.79317        3.77602
C          8.83066       -0.74787        5.17935
C         10.36196       -0.79373        5.18404
C         10.96794       -0.75262        6.59080
C         12.49413       -0.88778        6.60135
C         13.09596       -0.85389        8.01061
C         14.60978       -1.09813        8.01713
C         15.17570       -1.04910        9.43659
N         16.61633       -1.37860        9.51100
C         17.55683       -0.45521        9.77096
N         18.75781       -1.04732        9.74008
C         18.58044       -2.38693        9.45535
C         17.23431       -2.61637        9.30156
C         16.56005       -3.89959        8.92882
C         15.44023       -4.40411        9.85950
C         14.97356       -5.81425        9.48109
C         13.74499       -6.27047       10.27488
C         13.25240       -7.66775        9.88508
C         11.99782       -8.11068       10.64632
C         11.51049       -9.50422       10.24235
C         20.04095       -0.36670        9.98772
O         19.80552        0.99014        9.73695
C         20.89451        1.84206       10.04130
C         22.04669        1.74656        9.25886
C         23.13276        2.60210        9.47418
C         24.37052        2.52583        8.61892
C         23.01228        3.55302       10.49940
C         21.84870        3.64468       11.25838
C         20.74658        2.79523       11.05881
C         19.49223        2.98340       11.90059
C         18.30210        3.49188       11.06405
C         19.12035        1.75724       12.75555
H         -0.26363       -0.27784       -1.26271
H         -0.15338        0.47630        0.33912
H         -0.25315       -1.28840        0.19555
H          2.10068        0.43928       -0.81730
H          2.00506       -1.31242       -0.96121
H          1.97179       -1.52031        1.54739
H          2.04257        0.23309        1.69522
H          4.27048        0.22944        0.49052
H          4.21004       -1.52937        0.40799
H          4.15358       -1.64136        2.92907
H          4.19435        0.11748        3.00505
H          6.43504        0.09596        1.81723
H          6.40428       -1.66564        1.82469
H          6.31368       -1.64791        4.34797
H          6.33431        0.11305        4.33283
H          8.59071        0.06305        3.18688
H          8.57234       -1.69756        3.25082
H          8.44110       -1.59253        5.77463
H          8.48998        0.16650        5.69621
H         10.75731        0.04858        4.58980
H         10.69912       -1.71067        4.66916
H         10.52951       -1.56325        7.19916
H         10.67775        0.18909        7.08845
H         12.94184       -0.08331        5.99271
H         12.77707       -1.83447        6.10837
H         12.60410       -1.61977        8.63562
H         12.87133        0.11689        8.48502
H         15.12505       -0.34846        7.39534
H         14.81733       -2.07898        7.56258
H         14.64426       -1.73821       10.10461
H         15.06994       -0.04248        9.86331
H         17.38533        0.59621        9.96517
H         19.41500       -3.07316        9.37199
H         17.35510       -4.65897        8.87846
H         16.16895       -3.81441        7.90091
H         14.57038       -3.73103        9.80814
H         15.78893       -4.38644       10.90493
H         15.80130       -6.52888        9.62945
H         14.73844       -5.84079        8.40237
H         12.92786       -5.54229       10.12397
H         13.97404       -6.24858       11.35469
H         14.06026       -8.40122       10.05428
H         13.04623       -7.69165        8.80018
H         11.19306       -7.37477       10.47763
H         12.20336       -8.08995       11.73003
H         11.27404       -9.54927        9.16861
H         10.60359       -9.78845       10.79316
H         12.27501      -10.26911       10.44383
H         20.78320       -0.81723        9.30673
H         20.34739       -0.53990       11.03494
H         22.08604        1.01471        8.44875
H         24.33363        1.67629        7.92568
H         25.27433        2.42328        9.23587
H         24.49110        3.44162        8.02153
H         23.83798        4.23848       10.69817
H         21.78000        4.40401       12.04013
H         19.74265        3.78764       12.61113
H         18.00342        2.76377       10.29594
H         18.55754        4.42427       10.54358
H         17.43320        3.69020       11.70753
H         18.72037        0.93137       12.14984
H         18.34414        2.02538       13.48570
H         19.98898        1.38135       13.31285
