69

C          0.20547       11.09794        5.09542
C          1.65707       10.72473        5.40653
C          2.51070       10.50335        4.15296
C          3.96325       10.12189        4.45621
C          4.84111       10.00684        3.20616
C          6.28990        9.60878        3.50662
C          7.19644        9.62383        2.27181
C          8.64655        9.22776        2.56980
C          9.57483        9.38199        1.35903
C         11.04530        9.03716        1.63759
C         11.33580        7.53366        1.77345
C         12.81385        7.21147        2.05098
C         13.19301        7.45185        3.51715
N         14.65070        7.41394        3.73983
N         15.23449        6.18252        3.96697
C         16.51620        6.39077        3.99929
N         16.78942        7.72796        3.78858
C         15.58838        8.37864        3.61322
N         15.48525        9.68832        3.36525
C         14.25667       10.50085        3.33129
C         14.60492       11.96163        3.04986
C         13.32451       12.80399        3.04564
S         13.76145       14.54658        2.79323
C         12.26191       15.35592        3.28378
S         10.84236       14.59696        3.60464
N         12.43146       16.74219        3.33772
C         11.40898       17.69471        3.40077
C         12.03791       18.90464        3.45661
N         13.42170       18.75103        3.44665
C         13.63360       17.46716        3.37225
Br        18.45457        8.55429        3.76364
H         -0.37599       11.25667        6.01384
H         -0.29571       10.30690        4.51777
H          0.14927       12.02346        4.50297
H          1.67866        9.81254        6.02696
H          2.11815       11.51704        6.02063
H          2.49641       11.42189        3.53949
H          2.04851        9.71866        3.52838
H          3.98332        9.16722        5.01109
H          4.40202       10.87410        5.13591
H          4.83383       10.97244        2.67021
H          4.39768        9.27362        2.50970
H          6.30705        8.60533        3.96745
H          6.70486       10.29642        4.26520
H          7.18258       10.63413        1.82655
H          6.78463        8.94946        1.50094
H          8.66680        8.18903        2.94252
H          9.03050        9.85525        3.39485
H          9.52097       10.42469        1.00677
H          9.20810        8.76343        0.52205
H         11.35124        9.57383        2.55498
H         11.67197        9.43501        0.82046
H         11.04454        7.03210        0.83819
H         10.70549        7.08602        2.55939
H         13.45276        7.83366        1.40086
H         13.03867        6.16464        1.80082
H         12.78867        6.66761        4.16924
H         12.82007        8.41194        3.88918
H         17.27931        5.63917        4.17177
H         16.36878       10.19491        3.36306
H         13.73590       10.42395        4.29891
H         13.59023       10.11882        2.54631
H         15.12214       12.03847        2.08006
H         15.29313       12.33565        3.82555
H         12.78174       12.73521        3.99984
H         12.63467       12.48945        2.24966
H         10.36908       17.39535        3.39063
H         11.58410       19.88949        3.50492
H         14.60248       16.97658        3.37867
