60

C          0.62947       -0.19420        0.03703
C          2.14860       -0.05998        0.17193
C          2.86267       -1.40750        0.32630
C          4.38479       -1.29690        0.46914
C          5.07450       -2.65747        0.61395
C          6.59966       -2.58862        0.75687
C          7.24268       -3.97652        0.85196
C          8.76979       -3.97849        0.99776
C          9.34748       -5.39800        0.96207
C         10.87185       -5.49065        1.11287
C         11.36859       -6.92616        0.89271
C         12.86413       -7.14781        1.00003
O         13.25546       -7.10118        2.41518
C         14.58465       -7.47487        2.65248
P         15.22792       -6.12541        3.73077
C         14.27904       -5.96660        5.28177
O         14.67202       -4.72099        5.80929
C         14.26517       -4.53001        7.19908
O         14.65822       -5.57004        8.01871
C         16.07586       -5.64825        8.29392
C         16.43836       -7.09812        8.51602
O         16.32914       -7.79174        7.25964
Br        17.34350       -6.28963        4.12163
H          0.14495        0.78597       -0.07081
H          0.19123       -0.68585        0.91841
H          0.35831       -0.79604       -0.84341
H          2.38653        0.57881        1.03942
H          2.55226        0.46643       -0.70958
H          2.62501       -2.04460       -0.54422
H          2.45216       -1.93666        1.20468
H          4.62566       -0.66638        1.34324
H          4.79738       -0.76769       -0.40787
H          4.82406       -3.28206       -0.26189
H          4.65313       -3.18608        1.48728
H          6.86048       -1.99420        1.65023
H          7.02564       -2.04475       -0.10447
H          6.97105       -4.55488       -0.04886
H          6.79892       -4.52440        1.70184
H          9.05503       -3.47750        1.93949
H          9.21861       -3.38012        0.18564
H          9.05715       -5.87100        0.00750
H          8.87090       -6.00539        1.75127
H         11.17111       -5.12932        2.11131
H         11.35790       -4.82243        0.38043
H         11.07939       -7.25439       -0.12007
H         10.86527       -7.62061        1.58541
H         13.43579       -6.37906        0.44984
H         13.14066       -8.14269        0.61422
H         15.22251       -7.50054        1.75122
H         14.67905       -8.43881        3.18263
H         15.03984       -4.92331        3.00824
H         14.54273       -6.82178        5.93397
H         13.20827       -6.01940        4.99712
H         13.16667       -4.48590        7.25371
H         14.71861       -3.55896        7.45253
H         16.30145       -5.06142        9.19926
H         16.65141       -5.24144        7.44733
H         15.75855       -7.53669        9.26549
H         17.46970       -7.14806        8.90604
H         16.47260       -8.73561        7.42756
