68

C          8.78538       -2.75595       -9.02226
C          8.98072       -1.41665       -8.30834
C          8.46331       -1.41856       -6.86443
C          8.66910       -0.07571       -6.15304
C          8.18048       -0.08359       -4.71357
O          8.47466        1.19654       -4.12574
C          8.21248        1.27407       -2.72706
C          8.92925        2.51554       -2.18090
C          8.91668        3.68406       -3.17612
O          9.43393        4.89657       -2.67146
C          8.55399        5.56324       -1.78145
C          9.22444        6.84660       -1.31032
O         10.21779        6.48779       -0.39322
C         11.09413        7.57761       -0.05255
C         12.17539        7.05684        0.87731
C         13.16118        8.15144        1.30202
C         14.25842        7.63879        2.24256
C         15.23107        8.73350        2.68657
N          7.31127        5.88878       -2.49962
C          6.88045        5.06379       -3.47530
N          5.77821        5.37593       -4.18480
C          4.68871        6.20819       -3.65536
C          3.30569        5.74400       -4.13989
C          2.92052        4.27972       -3.90777
C          3.07800        3.70759       -2.46023
Br         2.15905        4.78820       -1.11746
F          2.64353        2.44017       -2.39841
F          4.41340        3.68200       -2.14630
Br         1.08189        4.01042       -4.50874
F          3.74222        3.46846       -4.70136
N          7.55736        3.93976       -3.71151
H          9.17122       -2.72090      -10.04969
H          7.72158       -3.03047       -9.07697
H          9.31041       -3.56862       -8.49912
H          8.47247       -0.61798       -8.87510
H         10.05173       -1.15200       -8.30725
H          8.97434       -2.21665       -6.29837
H          7.39123       -1.68228       -6.86139
H          8.14884        0.72368       -6.70724
H          9.73968        0.18657       -6.15477
H          8.69335       -0.87084       -4.13028
H          7.09269       -0.28181       -4.65807
H          8.58121        0.37134       -2.20916
H          7.12113        1.33295       -2.54118
H          9.98668        2.29560       -1.97958
H          8.46215        2.80730       -1.22897
H          9.55199        3.43531       -4.03588
H          8.31494        4.92474       -0.91444
H          8.45540        7.50690       -0.85089
H          9.64442        7.36862       -2.19431
H         10.50913        8.38393        0.43125
H         11.53463        7.99119       -0.98033
H         12.71363        6.24064        0.36872
H         11.69717        6.61478        1.76611
H         12.61238        8.97076        1.79853
H         13.62910        8.59783        0.40715
H         14.81531        6.82970        1.74061
H         13.78915        7.17858        3.12828
H         15.74016        9.19148        1.82559
H         16.00520        8.33393        3.35523
H         14.70893        9.53685        3.22735
H          7.03449        6.86489       -2.55236
H          5.53004        4.72696       -4.92571
H          4.81085        7.25230       -3.98480
H          4.73886        6.19431       -2.55708
H          3.20898        5.90609       -5.22366
H          2.55483        6.38470       -3.66157
H          7.18025        3.21608       -4.32076
