86

C         11.76611        8.94651        0.80291
C         11.49104        7.44059        0.78018
C         12.12207        6.72326       -0.41889
C         11.84410        5.21704       -0.44979
C         12.48589        4.49269       -1.63789
C         12.19413        2.98895       -1.66594
C         12.82628        2.25519       -2.85336
C         12.51269        0.75577       -2.87781
C         13.10122        0.01646       -4.08410
C         12.75463       -1.47572       -4.10823
C         13.26727       -2.21182       -5.35068
C         12.87337       -3.69471       -5.37659
C         13.22129       -4.42865       -6.67954
C         14.72649       -4.61387       -6.92521
C         15.05836       -5.34811       -8.23448
C         14.73813       -4.49432       -9.46624
N         14.86961       -5.23224      -10.74324
C         16.07075       -5.59143      -11.21640
N         17.18282       -4.93866      -10.81889
N         16.22445       -6.59421      -12.11050
C         15.55971       -7.89240      -12.05838
C         16.59568       -8.92758      -12.51300
O         17.72480       -8.61720      -12.84690
O         16.07892      -10.15284      -12.50385
C         16.96042      -11.22609      -12.95301
C         13.62593       -5.47191      -11.50808
C         12.93593       -4.17535      -11.94571
C         11.69751       -4.46713      -12.81682
C         10.90855       -3.20972      -13.10437
C         11.26216       -2.36587      -14.16742
C         10.55875       -1.18221      -14.40144
C          9.49049       -0.82583      -13.57355
C          9.12768       -1.66081      -12.51356
C          9.83362       -2.84340      -12.28141
H         11.30630        9.42735        1.67738
H         11.36627        9.43966       -0.09580
H         12.84604        9.15475        0.83973
H         10.40188        7.26449        0.77579
H         11.86527        6.98352        1.71209
H         13.21338        6.89403       -0.41144
H         11.75288        7.18248       -1.35329
H         10.75279        5.04835       -0.46734
H         12.20268        4.76137        0.49016
H         13.57826        4.65361       -1.61726
H         12.13212        4.95047       -2.57874
H         11.10121        2.83140       -1.68325
H         12.54790        2.53150       -0.72516
H         13.92076        2.40176       -2.83508
H         12.47630        2.71601       -3.79427
H         11.41739        0.61492       -2.86911
H         12.88211        0.28975       -1.94744
H         14.19856        0.14102       -4.09362
H         12.73551        0.48979       -5.01281
H         11.65835       -1.59336       -4.04947
H         13.15756       -1.96145       -3.20256
H         14.36435       -2.10407       -5.40529
H         12.86737       -1.71666       -6.25448
H         11.78560       -3.77271       -5.21801
H         13.33897       -4.21843       -4.52390
H         12.76006       -3.87454       -7.51668
H         12.74469       -5.42351       -6.67392
H         15.15681       -5.18641       -6.08881
H         15.24104       -3.63843       -6.91517
H         14.47622       -6.28273       -8.29690
H         16.12120       -5.63526       -8.24418
H         15.33848       -3.56981       -9.48203
H         13.69822       -4.15608       -9.42451
H         17.13331       -4.02059      -10.39652
H         18.09755       -5.35347      -10.94474
H         17.15214       -6.68959      -12.54028
H         14.69173       -7.95759      -12.73235
H         15.21189       -8.13031      -11.04248
H         16.37939      -12.14176      -12.82063
H         17.87034      -11.24446      -12.34219
H         17.22090      -11.07485      -14.00716
H         12.94984       -6.08598      -10.89186
H         13.88187       -6.05251      -12.40012
H         13.64795       -3.54859      -12.50570
H         12.61519       -3.58663      -11.07323
H         11.05086       -5.19383      -12.29903
H         12.01449       -4.94013      -13.76035
H         12.08934       -2.64232      -14.82602
H         10.84018       -0.53983      -15.23664
H          8.93680        0.09481      -13.75956
H          8.28830       -1.39498      -11.86986
H          9.53823       -3.49677      -11.45646
