46

C          1.36977        1.06385       -0.46516
C          2.88767        1.02213       -0.65798
C          3.35302       -0.16635       -1.50721
C          4.87151       -0.21120       -1.71618
C          5.32302       -1.43404       -2.52755
C          6.82066       -1.44347       -2.75705
O          7.16154       -2.68574       -3.46596
C          8.42852       -2.80812       -3.89857
N          8.57658       -2.14063       -5.31769
N          7.58721       -1.53787       -5.91023
N          7.99015       -1.16293       -7.11796
C          9.26494       -1.55432       -7.26936
N          9.66316       -2.17439       -6.12853
C         10.94497       -2.83817       -5.73614
C         11.03360       -4.20460       -6.42100
O          9.88045       -4.93855       -6.03059
C         12.16271       -1.93366       -5.96874
C         12.06090       -0.56331       -5.29559
C         10.05669       -1.31253       -8.49949
H          1.06738        1.92557        0.14501
H          1.00554        0.15699        0.03964
H          0.84503        1.13969       -1.42885
H          3.38284        0.97868        0.32705
H          3.22723        1.96141       -1.12683
H          2.85112       -0.13289       -2.48984
H          3.02232       -1.10560       -1.03058
H          5.37535       -0.21253       -0.73420
H          5.19495        0.71363       -2.22512
H          4.81551       -1.45038       -3.50483
H          5.03746       -2.35964       -2.00316
H          7.38367       -1.43769       -1.80835
H          7.13312       -0.58271       -3.37003
H          8.67371       -3.86316       -4.08329
H          9.19104       -2.30515       -3.27675
H         10.84438       -3.01149       -4.65557
H         11.96802       -4.68401       -6.08182
H         11.09231       -4.08680       -7.51779
H          9.89030       -5.81156       -6.45322
H         12.36408       -1.82953       -7.04457
H         13.02184       -2.48562       -5.55912
H         11.24842        0.05058       -5.70976
H         12.99260       -0.00207       -5.43449
H         11.89337       -0.65751       -4.21317
H          9.36725       -0.96295       -9.27529
H         10.56267       -2.21937       -8.85195
H         10.81472       -0.53408       -8.33462
