91

C          0.61234       -0.39232       -0.05847
C          2.12963       -0.22313        0.05202
C          2.68754       -0.57553        1.43613
C          4.20505       -0.39705        1.54381
C          4.78260       -0.73089        2.92400
C          6.29892       -0.52612        3.00240
C          6.91524       -0.83749        4.37120
C          8.43260       -0.62360        4.39609
C          9.10201       -0.93775        5.73899
C         10.62450       -0.76090        5.68682
C         11.34321       -1.10227        7.00055
C         12.85136       -1.03071        6.83742
O         13.49857       -1.41213        8.07465
C         14.89027       -1.66031        7.92385
C         15.37861       -2.22486        9.25877
N         14.96576       -1.14937       10.27538
C         15.10823       -1.49367       11.75087
C         16.58965       -1.47721       12.13844
C         16.84066       -1.66989       13.63967
C         18.33612       -1.61438       13.96940
N         18.57579       -1.92226       15.36959
C         20.00643       -1.89754       15.72738
C         20.23539       -2.47967       17.09901
C         20.48820       -3.84860       17.25699
C         20.68477       -4.42396       18.51374
C         20.63838       -3.61077       19.64839
C         20.39609       -2.24336       19.52066
C         20.19139       -1.67785       18.25584
O         19.95740       -0.33664       18.09236
C         14.39414       -2.83451       11.92243
O         14.97869       -3.81431       11.08419
C         14.75744       -3.57883        9.68265
C         15.34982       -4.82162        9.00701
C         15.13048       -5.01506        7.49735
O         16.04414       -4.19064        6.73924
C         15.25584       -6.47994        7.09311
H          0.24987       -0.12577       -1.06090
H          0.08481        0.24660        0.66539
H          0.30972       -1.43177        0.13778
H          2.40209        0.81802       -0.19151
H          2.62693       -0.84866       -0.70866
H          2.42155       -1.61915        1.68138
H          2.18961        0.04875        2.19904
H          4.46537        0.64520        1.28687
H          4.69996       -1.02498        0.78196
H          4.53846       -1.77684        3.18105
H          4.28684       -0.10838        3.68932
H          6.53586        0.51769        2.73006
H          6.78831       -1.15270        2.23589
H          6.68638       -1.88157        4.64890
H          6.43899       -0.20746        5.14260
H          8.65486        0.42135        4.11697
H          8.89507       -1.24726        3.61086
H          8.86505       -1.97480        6.03420
H          8.67840       -0.29188        6.52719
H         10.86049        0.27769        5.39819
H         11.02718       -1.39730        4.87965
H         11.07009       -2.12023        7.32355
H         11.02140       -0.41542        7.80029
H         13.17965       -0.01295        6.55653
H         13.18646       -1.72278        6.04409
H         15.44019       -0.72245        7.69306
H         15.10865       -2.36787        7.11170
H         16.47439       -2.28602        9.27444
H         13.98135       -0.93238       10.02527
H         15.50848       -0.29939       10.07034
H         14.56003       -0.70612       12.29237
H         17.02336       -0.51077       11.82375
H         17.12335       -2.26378       11.58350
H         16.44727       -2.64959       13.95807
H         16.30883       -0.90801       14.23065
H         18.71980       -0.59790       13.77368
H         18.88839       -2.28985       13.27336
H         18.20311       -2.84776       15.59404
H         20.34542       -0.85113       15.69442
H         20.62102       -2.46550       14.99657
H         20.54564       -4.47245       16.36129
H         20.88520       -5.49085       18.60645
H         20.80104       -4.03654       20.63910
H         20.36828       -1.60404       20.40713
H         19.99726        0.09420       18.96146
H         13.31221       -2.72535       11.70919
H         14.49873       -3.18876       12.95495
H         13.66713       -3.53043        9.49316
H         14.88995       -5.66411        9.54443
H         16.42978       -4.86843        9.22036
H         14.12200       -4.65667        7.22473
H         16.78660       -4.74383        6.44957
H         16.24214       -6.88238        7.37406
H         15.12843       -6.58934        6.00820
H         14.49313       -7.09624        7.58709
