68

C          0.98779       -4.15152       -5.41178
C          2.49776       -4.19392       -5.17303
C          3.11538       -2.79407       -5.13960
C          4.61707       -2.79225       -4.98454
O          5.36481       -3.73437       -5.16544
O          5.06981       -1.54799       -4.62057
C          6.50145       -1.41910       -4.52130
C          7.01318       -1.92952       -3.17180
C          8.54228       -1.91495       -3.08995
C          9.22216       -2.86703       -4.10229
N         10.41536       -3.47166       -3.36016
C         10.57779       -2.67592       -2.07699
C          9.14926       -2.28396       -1.69820
C          8.40995       -3.34664       -0.85337
C          8.40100       -4.79407       -1.37098
C          7.53284       -5.77560       -0.55216
C          7.54396       -7.15675       -1.23566
C          6.53216       -8.17454       -0.67488
C          6.51917       -9.45536       -1.46153
C          6.86841      -10.68754       -1.04668
C          7.35097      -11.02382        0.34003
C          6.78540      -11.86654       -1.98130
C          7.97834       -5.85329        0.91379
C         11.67941       -3.60786       -4.17057
C         11.53511       -4.63741       -5.24521
C         11.73354       -4.48309       -6.55890
Br        12.20577       -2.84658       -7.36508
Br        11.06169       -6.37207       -4.59149
H          0.56298       -5.16354       -5.42680
H          0.74839       -3.67649       -6.37453
H          0.46985       -3.58454       -4.62426
H          2.99151       -4.78645       -5.95681
H          2.71445       -4.70682       -4.22287
H          2.68032       -2.17435       -4.34017
H          2.89532       -2.25236       -6.07706
H          6.70028       -0.34548       -4.64247
H          6.96236       -1.97025       -5.35527
H          6.63858       -2.95200       -3.02169
H          6.59698       -1.30144       -2.37003
H          8.88989       -0.89307       -3.31766
H          9.60866       -2.35845       -4.99283
H          8.57193       -3.69112       -4.42261
H         10.14079       -4.43346       -3.08792
H         11.19596       -1.80070       -2.31931
H         11.10423       -3.29962       -1.34334
H          9.19276       -1.36662       -1.09280
H          7.37196       -3.00768       -0.71231
H          8.86478       -3.32776        0.14847
H          9.43215       -5.20396       -1.37168
H          8.03042       -4.82980       -2.41102
H          6.49559       -5.39247       -0.58020
H          8.55915       -7.58729       -1.16599
H          7.34012       -7.02400       -2.31252
H          5.52634       -7.71798       -0.70976
H          6.74395       -8.37224        0.38494
H          6.18271       -9.35435       -2.50061
H          7.42514      -10.15439        1.00373
H          8.34248      -11.50310        0.29617
H          6.67753      -11.75497        0.81533
H          6.43591      -11.57535       -2.97989
H          6.09931      -12.63327       -1.58641
H          7.76693      -12.35708       -2.08673
H          9.02049       -6.20343        0.98926
H          7.35366       -6.55523        1.47988
H          7.90717       -4.88406        1.42522
H         12.47589       -3.89317       -3.46667
H         11.91285       -2.62500       -4.60070
H         11.65024       -5.30470       -7.26750
