87

C          0.96800        2.25113        0.04745
C          2.47467        1.98881       -0.01307
C          2.98924        1.73152       -1.43433
C          4.48639        1.40694       -1.48735
C          5.02010        1.22110       -2.91198
C          6.50316        0.83542       -2.94461
C          7.04303        0.73970       -4.39056
C          8.49576        0.44542       -4.45784
N          9.42199        1.34876       -4.83000
N         10.61717        0.79040       -4.73905
N         10.45661       -0.43529       -4.31725
N          9.13703       -0.70335       -4.11833
C          8.65103       -2.03380       -3.70246
C          7.47256       -2.53642       -4.57152
O          7.63101       -2.27812       -5.94171
C          8.59166       -3.10611       -6.61533
C          8.42371       -2.88941       -8.11330
O          9.50146       -3.55608       -8.73453
C          9.37846       -3.61538      -10.15937
C         10.47488       -4.49266      -10.72190
O         10.19753       -5.84565      -10.40661
C         11.17840       -6.73557      -10.92118
C         11.57776       -1.39129       -4.06379
O         12.73142       -0.65872       -4.17037
C         13.92861       -1.47248       -4.00304
C         15.13773       -0.56164       -4.10377
C         16.44781       -1.33688       -3.90873
C         17.69764       -0.45207       -3.99395
C         18.99645       -1.24351       -3.80768
C         20.26817       -0.39148       -3.88236
C         21.54954       -1.21494       -3.71227
C         22.83941       -0.39057       -3.77662
C         24.10834       -1.23578       -3.61331
C         25.40070       -0.41742       -3.67233
H          0.63659        2.44385        1.07646
H          0.39613        1.39055       -0.32983
H          0.68856        3.12507       -0.55938
H          2.72352        1.12397        0.62521
H          3.01739        2.84734        0.41707
H          2.78262        2.61563       -2.06241
H          2.41929        0.90047       -1.88574
H          4.68084        0.49324       -0.89831
H          5.05360        2.21367       -0.99145
H          4.87536        2.15399       -3.48252
H          4.42895        0.44926       -3.43478
H          6.64287       -0.12451       -2.41847
H          7.09733        1.58129       -2.39305
H          6.91754        1.70503       -4.89988
H          6.48322       -0.00374       -4.97645
H          8.35396       -1.98216       -2.64540
H          9.50079       -2.71954       -3.78262
H          6.53886       -2.04765       -4.26493
H          7.36701       -3.61584       -4.35506
H          8.43271       -4.16700       -6.35543
H          9.62723       -2.83263       -6.33361
H          8.42778       -1.80261       -8.33532
H          7.44956       -3.29526       -8.44558
H          9.46071       -2.59962      -10.59151
H          8.39242       -4.03253      -10.43519
H         11.45528       -4.18302      -10.30643
H         10.51622       -4.34441      -11.82017
H         10.87215       -7.74862      -10.63543
H         12.17860       -6.52711      -10.49821
H         11.24267       -6.67594      -12.02327
H         11.49348       -2.20027       -4.82110
H         11.41358       -1.81412       -3.05087
H         13.94167       -2.25072       -4.78777
H         13.88492       -1.97115       -3.01717
H         15.04900        0.23081       -3.34402
H         15.13020       -0.06444       -5.08624
H         16.51944       -2.13645       -4.66639
H         16.43237       -1.84577       -2.92922
H         17.63610        0.34295       -3.23077
H         17.71595        0.06384       -4.96943
H         19.04834       -2.03805       -4.57293
H         18.96707       -1.76525       -2.83484
H         20.23004        0.39425       -3.10758
H         20.29849        0.13945       -4.84997
H         21.58130       -1.99858       -4.48988
H         21.51020       -1.75154       -2.74778
H         22.81685        0.38879       -2.99445
H         22.88257        0.14995       -4.73877
H         24.12797       -2.01231       -4.39686
H         24.05971       -1.77857       -2.65396
H         25.49812        0.10832       -4.63390
H         26.28670       -1.05604       -3.55319
H         25.43032        0.34224       -2.87705
