73

C          0.55101       -0.41105        0.29767
C          2.03467       -0.61049        0.61603
C          2.75356       -1.51832       -0.38799
C          4.23856       -1.72659       -0.07461
C          4.95859       -2.61231       -1.09577
C          6.44745       -2.81384       -0.79236
C          7.16310       -3.63695       -1.87086
C          8.63844       -3.81770       -1.57325
O          9.22602       -4.55126       -2.70240
C         10.54284       -4.79249       -2.64309
O         11.29332       -4.45599       -1.74990
C         10.97544       -5.58629       -3.88448
C         12.47390       -5.73690       -3.96516
C         12.94731       -6.97494       -3.61149
N         14.28520       -7.24430       -3.55925
C         15.24515       -6.34531       -3.80892
C         14.83666       -5.03174       -4.16909
C         13.42686       -4.70064       -4.29258
C         13.08975       -3.37146       -4.72473
C         11.69389       -2.87091       -5.00786
C         14.12256       -2.46226       -4.93238
C         15.48128       -2.78022       -4.76478
C         15.83929       -4.05625       -4.40374
C         16.67397       -6.78392       -3.69149
C         16.92762       -8.28965       -3.57259
O         18.32264       -8.43289       -3.51056
C         18.77185       -9.80059       -3.48694
C         20.29122       -9.79754       -3.46794
C         20.89472      -11.20634       -3.50293
C         22.42881      -11.19452       -3.49912
C         23.04461      -12.59333       -3.57297
H          0.06549        0.24511        1.03271
H          0.00950       -1.36874        0.29871
H          0.41385        0.04427       -0.69452
H          2.14142       -1.03436        1.62888
H          2.54115        0.36913        0.64491
H          2.65121       -1.09129       -1.40160
H          2.24565       -2.49825       -0.42301
H          4.34137       -2.16899        0.93171
H          4.74166       -0.74517       -0.02471
H          4.85111       -2.16838       -2.10113
H          4.46016       -3.59604       -1.14571
H          6.55931       -3.30659        0.18851
H          6.93659       -1.82903       -0.69645
H          7.05427       -3.13985       -2.84837
H          6.68868       -4.62669       -1.96639
H          8.81861       -4.39772       -0.65654
H          9.16813       -2.85830       -1.47805
H         10.53299       -5.13105       -4.77581
H         10.51301       -6.58106       -3.80307
H         12.29371       -7.80140       -3.34216
H         14.57120       -8.18630       -3.29198
H         11.18704       -3.46709       -5.77799
H         11.74652       -1.84278       -5.38246
H         11.05773       -2.85288       -4.11392
H         13.85960       -1.45191       -5.24925
H         16.24176       -2.01910       -4.93752
H         16.88957       -4.31707       -4.29313
H         17.13136       -6.28490       -2.82014
H         17.23321       -6.42452       -4.56760
H         16.51121       -8.82939       -4.45085
H         16.45297       -8.71461       -2.65787
H         18.38713      -10.32645       -4.38244
H         18.36102      -10.30913       -2.59326
H         20.63311       -9.26237       -2.56753
H         20.64872       -9.21702       -4.33371
H         20.53877      -11.73943       -4.40188
H         20.53293      -11.79054       -2.63891
H         22.78414      -10.68030       -2.59052
H         22.78627      -10.58865       -4.34861
H         22.73421      -13.21436       -2.71981
H         24.14180      -12.54727       -3.56630
H         22.74055      -13.11671       -4.49151
