66

C          7.74092       -0.69191        7.33313
C          8.36573        0.35882        6.43256
O          7.84405        0.27337        5.06734
P          8.62481       -0.56188        3.94401
O         10.09390       -0.35065        3.86347
O          8.17968       -2.09656        4.14194
C          9.15587       -3.15485        4.38648
C          9.40322       -3.95550        3.12228
C          7.70073       -0.04103        2.46775
C          8.20500       -0.76934        1.21197
C          7.87808       -0.02382       -0.10003
C          8.57542        1.30730       -0.16862
C          7.89019        2.53289       -0.25780
C          8.59509        3.73407       -0.27688
C          7.90263        5.06709       -0.39100
C          8.53217        6.22719        0.41525
O          9.85995        6.51129       -0.06319
C          7.64815        7.46731        0.39568
C          9.99108        3.62296       -0.17236
N         10.56553        2.41290       -0.07066
N          9.91210        1.25735       -0.08767
C         12.03435        2.28518       -0.00073
C         12.65344        2.17387       -1.41660
O         14.04219        2.20050       -1.28364
Si        15.06363        0.86477       -1.56059
C         16.75164        1.48246       -1.06135
C         14.48468       -0.57075       -0.49259
C         14.97598        0.41332       -3.37933
H          8.08783       -0.54153        8.36521
H          8.01763       -1.70846        7.02568
H          6.64596       -0.61374        7.32473
H          9.46247        0.27945        6.39777
H          8.10580        1.37262        6.76412
H          8.71247       -3.77577        5.17693
H         10.08463       -2.70472        4.76260
H          8.46254       -4.35068        2.71569
H         10.06280       -4.80642        3.34314
H          9.89207       -3.33891        2.35596
H          7.86775        1.04595        2.40409
H          6.62488       -0.19585        2.63102
H          7.76925       -1.77602        1.16357
H          9.29609       -0.89778        1.26856
H          6.79522        0.12885       -0.21101
H          8.21179       -0.63482       -0.95316
H          6.80006        2.53099       -0.30775
H          6.85246        4.93678       -0.09052
H          7.88387        5.35778       -1.45674
H          8.67328        5.89509        1.45759
H          9.80609        7.21702       -0.72796
H          7.48592        7.82074       -0.63501
H          8.11867        8.27399        0.97173
H          6.66362        7.26555        0.83832
H         10.64695        4.49277       -0.15271
H         12.24540        1.38803        0.59055
H         12.43242        3.17243        0.50562
H         12.32221        3.03886       -2.02068
H         12.26991        1.25847       -1.90550
H         16.77462        1.76869       -0.00120
H         17.04555        2.35599       -1.65897
H         17.50739        0.69937       -1.21603
H         14.53115       -0.32159        0.57685
H         15.13046       -1.44542       -0.65642
H         13.45703       -0.88123       -0.73183
H         15.28494        1.25953       -4.00844
H         13.96486        0.10989       -3.68586
H         15.64864       -0.42912       -3.59582
