52

N          2.28256        2.88271        4.22317
C          3.37462        1.90942        4.34111
C          4.19217        1.86958        3.04860
C          5.47517        1.04099        3.16786
C          6.32817        0.98552        1.89087
C          6.70264        2.35270        1.27850
C          7.28682        3.40487        2.25361
C          6.91587        4.83531        1.84733
N          7.68611        5.24851        0.66258
C          8.86371        4.70897        0.32623
N          9.46978        5.04597       -0.82581
C          8.91756        5.93313       -1.85841
C          9.80155        5.91736       -3.10906
C          9.84993        4.57155       -3.83848
N          9.44076        3.81151        1.14795
C          8.82151        3.37771        2.42210
C          9.41927        2.03344        2.84204
C         10.88257        2.14015        3.29650
C         11.53504        0.77782        3.46698
F         10.86261        0.00218        4.35572
F         11.56912        0.09692        2.28397
F         12.80988        0.89612        3.90230
H          1.81130        3.00257        5.12005
H          1.57094        2.54472        3.57291
H          3.04482        0.88286        4.59826
H          4.02484        2.24252        5.16686
H          4.41528        2.91527        2.77820
H          3.57027        1.47179        2.22725
H          5.22227        0.00744        3.45216
H          6.07770        1.42598        4.01055
H          5.78049        0.42766        1.11514
H          7.23162        0.39184        2.09371
H          5.79843        2.78667        0.82559
H          7.39461        2.18626        0.43641
H          6.85530        3.25461        3.25370
H          7.10968        5.54284        2.66884
H          5.85022        4.89993        1.59233
H          7.34054        6.01891        0.10165
H         10.43482        4.75407       -0.94176
H          8.84647        6.96366       -1.46927
H          7.90227        5.58640       -2.11433
H         10.81690        6.24853       -2.83213
H          9.41296        6.69413       -3.78345
H         10.26287        3.76503       -3.21501
H         10.48481        4.64338       -4.73053
H          8.84852        4.25837       -4.16657
H         10.17374        3.23075        0.75364
H          9.08670        4.12589        3.19048
H          9.33161        1.31424        2.01334
H          8.81391        1.63359        3.66673
H         10.95914        2.66683        4.25821
H         11.50967        2.69086        2.57903
