73

C         -0.25265       -8.75689        2.84299
C         -0.64446       -8.45712        1.39415
C          0.13226       -7.27610        0.79951
C         -0.28340       -6.99530       -0.64822
N          0.50408       -5.90915       -1.26356
C          0.09762       -4.63386       -1.21745
S         -1.35530       -4.13916       -0.50136
S          1.25848       -3.47500       -1.95477
C          0.38483       -1.89041       -1.82437
C         -0.22783       -1.36595       -3.13774
C         -0.89105       -2.38707       -4.05792
N         -2.07999       -3.11641       -3.47602
C         -3.34074       -2.28568       -3.48454
C         -4.50510       -3.01739       -2.81624
C         -4.71332       -4.44842       -3.34283
C         -3.37820       -5.19618       -3.27048
C         -2.29089       -4.49964       -4.11378
C         -2.53899       -4.35726       -5.62030
C         -2.41424       -5.65994       -6.45657
N         -3.59484       -6.49534       -6.16920
N         -2.43522       -5.23367       -7.85688
N         -1.16247       -6.33230       -6.11072
C         -3.34259       -6.72580       -3.41807
O         -2.25312       -7.28762       -3.47108
C         -4.62492       -7.49920       -3.26290
C          1.73247       -6.33887       -1.95771
C          1.47471       -6.70347       -3.42509
C          2.74660       -7.15787       -4.14842
C          2.48190       -7.54534       -5.60588
H         -0.81615       -9.61275        3.23700
H         -0.45370       -7.89655        3.49770
H          0.81754       -8.99582        2.92760
H         -1.72528       -8.24456        1.33935
H         -0.47813       -9.35292        0.77262
H          1.21415       -7.48609        0.84211
H         -0.03731       -6.37032        1.40310
H         -1.34178       -6.71479       -0.69985
H         -0.14140       -7.88420       -1.27947
H          1.12609       -1.17368       -1.44775
H         -0.37599       -2.03956       -1.04103
H          0.56076       -0.90670       -3.75317
H         -0.91818       -0.54496       -2.88713
H         -0.16481       -3.16492       -4.32951
H         -1.22679       -1.88966       -4.97584
H         -1.85764       -3.33655       -2.45717
H         -3.55539       -2.04102       -4.53369
H         -3.11180       -1.35038       -2.95848
H         -5.40825       -2.40797       -2.96112
H         -4.32568       -3.05623       -1.73012
H         -5.10989       -4.43942       -4.36939
H         -5.47006       -4.94299       -2.72044
H         -3.02160       -5.10163       -2.21971
H         -1.33603       -5.01788       -3.94725
H         -1.79379       -3.66837       -6.03829
H         -3.52605       -3.92820       -5.83642
H         -4.40791       -6.12997       -6.67037
H         -3.43902       -7.45444       -6.48416
H         -1.56378       -4.76046       -8.10673
H         -2.53280       -6.04275       -8.47354
H         -1.24448       -6.84073       -5.22444
H         -0.90433       -7.00008       -6.83798
H         -5.01112       -7.37109       -2.23808
H         -4.43119       -8.56283       -3.43321
H         -5.39905       -7.14019       -3.95208
H          2.12332       -7.20573       -1.40577
H          2.49440       -5.55076       -1.87129
H          1.04767       -5.83222       -3.94707
H          0.71049       -7.49572       -3.47022
H          3.19118       -8.01276       -3.61240
H          3.49724       -6.35091       -4.10977
H          1.78288       -8.39255       -5.67037
H          3.40846       -7.84128       -6.11465
H          2.04162       -6.70750       -6.16626
