57

C          3.03763        1.51526        1.65036
C          2.71835        2.99170        1.89604
C          2.97279        3.44947        3.35124
C          4.39506        3.21977        3.78402
O          4.77915        2.41779        4.61590
O          5.26681        4.02293        3.08680
C          6.65361        3.84487        3.39300
C          7.20575        2.61128        2.64151
C          8.63335        2.33905        2.93966
N          9.63132        2.58811        2.07510
N         10.76941        2.24986        2.65280
N         10.51038        1.80439        3.85355
N          9.16616        1.84406        4.08462
C          8.56275        1.42314        5.37452
C          7.37207        0.46624        5.26595
C          7.57530       -0.79452        4.42042
S          8.99776       -1.80460        4.92561
C         10.06071       -1.74363        3.49705
S          9.69522       -1.07759        2.03797
N         11.28595       -2.36457        3.75540
C         11.77636       -2.85185        4.98083
N         12.98395       -3.32515        4.86343
C         13.32460       -3.16769        3.52167
C         12.31094       -2.58025        2.82365
C         11.53365        1.29785        4.79922
C         12.95943        1.32231        4.22598
C         13.52430        2.74231        4.08753
C         13.83343        0.46600        5.15709
H          2.78649        1.22725        0.62151
H          2.47139        0.86102        2.32887
H          4.10662        1.29542        1.79761
H          1.65909        3.18562        1.67423
H          3.29908        3.62710        1.21107
H          2.33328        2.89684        4.05144
H          2.74684        4.52214        3.44438
H          6.77781        3.73929        4.48035
H          7.15085        4.75994        3.05036
H          7.14002        2.77863        1.55898
H          6.59204        1.73552        2.88830
H          8.26636        2.33773        5.90613
H          9.37348        0.95162        5.93978
H          6.47633        0.99653        4.91022
H          7.14224        0.19522        6.30817
H          7.74043       -0.58304        3.34910
H          6.69043       -1.43835        4.50289
H         11.19423       -2.81203        5.89670
H         14.28878       -3.49639        3.14706
H         12.18648       -2.30622        1.78406
H         11.23550        0.26988        5.05096
H         11.46941        1.91747        5.70792
H         12.92801        0.83966        3.23589
H         13.56586        3.24554        5.06568
H         12.94281        3.36578        3.39796
H         14.54973        2.69611        3.69948
H         13.87713        0.89076        6.17162
H         14.86074        0.43483        4.77308
H         13.47648       -0.56931        5.23196
