64

C          1.20980       -1.67240        1.85130
C          2.71756       -1.70002        1.59225
C          3.08846       -2.40764        0.28321
C          4.59895       -2.42239        0.01799
C          4.96006       -3.21157       -1.22750
O          6.39297       -3.11694       -1.42062
C          6.87531       -3.97435       -2.40822
N          8.33913       -3.87375       -2.36751
C          9.10992       -3.25505       -3.28288
N         10.36383       -3.26984       -2.84794
N         10.42231       -3.89215       -1.62370
C          9.19028       -4.25925       -1.33817
C          8.79968       -5.00319       -0.10872
C          8.47732       -6.48197       -0.38155
O          9.55763       -7.02610       -1.10513
C          9.50720       -8.45102       -1.23785
C         10.85537       -8.94636       -1.71527
O         11.78056       -8.82511       -0.65214
C         13.09922       -9.23052       -1.00327
C         13.96547       -9.08442        0.23991
O         15.28496       -9.45584       -0.11488
C         16.17835       -9.40914        0.98858
Si        11.91721       -2.59426       -3.66416
C         11.83160       -3.30557       -5.38905
C         11.69683       -0.74211       -3.60998
C         13.31551       -3.24087       -2.62737
H          0.97735       -1.17908        2.80425
H          0.79178       -2.68909        1.89334
H          0.67725       -1.12797        1.05767
H          3.22791       -2.20375        2.43040
H          3.11060       -0.66976        1.57349
H          2.57132       -1.91443       -0.55785
H          2.70538       -3.44271        0.31145
H          5.12806       -2.86065        0.87983
H          4.97327       -1.39225       -0.09243
H          4.44770       -2.81177       -2.12173
H          4.67818       -4.27584       -1.11966
H          6.55446       -3.69261       -3.42891
H          6.58836       -5.02636       -2.22836
H          8.75127       -2.82105       -4.21083
H          7.93867       -4.51349        0.36887
H          9.65603       -4.94189        0.57439
H          7.52404       -6.59046       -0.94057
H          8.34081       -6.99456        0.58883
H          8.72045       -8.74267       -1.95930
H          9.27383       -8.91169       -0.26085
H         11.18272       -8.35549       -2.59501
H         10.75593      -10.00154       -2.03979
H         13.50056       -8.60020       -1.82041
H         13.11073      -10.28102       -1.35044
H         13.57268       -9.73138        1.04854
H         13.92829       -8.03736        0.60203
H         17.16088       -9.72458        0.61884
H         15.85958      -10.09227        1.79683
H         16.25864       -8.38666        1.40213
H         10.94657       -2.96196       -5.94250
H         11.82826       -4.40374       -5.36740
H         12.71444       -2.98551       -5.96117
H         10.79406       -0.41714       -4.14518
H         12.55753       -0.25562       -4.09156
H         11.64156       -0.37601       -2.57608
H         13.31634       -4.33751       -2.58492
H         13.26690       -2.85568       -1.60113
H         14.26706       -2.91350       -3.07141
