94

C          1.43713       -1.24442        0.33523
C          2.94134       -1.22439        0.15004
O          3.61458       -0.98084        1.43337
P          4.17915        0.49724        1.73635
O          3.28255        1.63119        1.42850
C          4.55743        0.34984        3.51811
C          3.26377        0.36166        4.34538
C          3.54531        0.58404        5.82744
N          2.25784        0.61427        6.63049
C          1.74439       -0.77127        6.96446
C          0.35257       -0.70552        7.62482
C         -0.77966       -0.43137        6.61304
C         -2.15841       -0.70805        7.22253
C         -3.31991       -0.36312        6.28269
P         -4.87418       -1.10336        6.86822
O         -4.83961       -2.57812        7.03381
O         -5.20805       -0.29820        8.22970
C         -5.51672       -1.01599        9.46191
C         -6.99995       -1.31542        9.58144
O         -5.88726       -0.50831        5.77853
C         -7.28597       -0.92630        5.76613
C         -7.89906       -0.47173        4.45858
N          0.30878        0.24406        8.74071
C          0.87143        1.54972        8.44186
C          2.30689        1.51916        7.87551
C          3.39492        1.09192        8.86096
C          3.54182        2.13103        9.98562
C          4.91004        2.03772       10.66956
S          5.31522        3.51794       11.62654
C          5.78951        4.66561       10.32500
S          5.89046        4.22153        8.71215
N          6.07344        5.90259       10.79101
C          6.47878        7.00462        9.90775
C          5.49747        8.16607       10.06378
O          5.39614        8.59201       11.42218
C          4.97461        7.52442       12.26105
C          5.93932        6.33514       12.18817
O          5.57923        0.62853        0.97394
C          6.57782       -0.43583        0.93588
C          7.24708       -0.42062       -0.42304
H          0.95078       -1.48935       -0.61957
H          1.07365       -0.26233        0.66373
H          1.14264       -2.00501        1.07106
H          3.24513       -0.45289       -0.57278
H          3.32608       -2.19409       -0.19336
H          5.18126        1.22714        3.75035
H          5.15807       -0.55107        3.71206
H          2.72448       -0.58384        4.18231
H          2.61758        1.17373        3.96961
H          4.04003        1.55244        5.98829
H          4.18012       -0.20106        6.25837
H          1.55293        1.04606        6.01268
H          2.48751       -1.22177        7.63339
H          1.72288       -1.34387        6.02857
H          0.17582       -1.70774        8.04632
H         -0.63049       -1.07197        5.72826
H         -0.73975        0.61099        6.24669
H         -2.25758       -0.14410        8.16111
H         -2.21387       -1.77700        7.48704
H         -3.15707       -0.77750        5.27559
H         -3.45567        0.72317        6.17627
H         -5.17676       -0.34613       10.26326
H         -4.92557       -1.94244        9.49015
H         -7.59757       -0.39883        9.48750
H         -7.20965       -1.76070       10.56454
H         -7.31927       -2.03240        8.81341
H         -7.78984       -0.46381        6.62913
H         -7.32698       -2.02030        5.87637
H         -7.83501        0.61916        4.35136
H         -8.95957       -0.75774        4.42815
H         -7.39248       -0.93866        3.60382
H          0.68490       -0.15189        9.59961
H          0.86082        2.16528        9.34966
H          0.21637        2.06899        7.72127
H          2.56732        2.51377        7.47839
H          4.35879        1.03026        8.33380
H          3.19468        0.09457        9.28196
H          2.74205        2.02706       10.73386
H          3.45554        3.13576        9.54631
H          5.70973        1.90911        9.92617
H          4.96196        1.21703       11.39992
H          6.49870        6.63146        8.87762
H          7.49328        7.32407       10.19736
H          4.50164        7.86475        9.68325
H          5.84523        9.03595        9.49147
H          3.95726        7.18858       11.97720
H          4.94224        7.92245       13.28389
H          5.56848        5.51486       12.81333
H          6.93382        6.62973       12.56118
H          6.08800       -1.40223        1.13054
H          7.30129       -0.23757        1.74218
H          6.52307       -0.63691       -1.21936
H          8.03705       -1.18370       -0.45720
H          7.70281        0.55730       -0.62353
