48

C          2.46311       -2.41854       -3.57147
C          2.08952       -0.93742       -3.66538
C          2.59336       -0.08446       -2.51214
O          4.07532       -0.10965       -2.40737
C          4.74367        0.74112       -3.16763
O          4.28121        1.54994       -3.95759
C          6.25679        0.61755       -2.94502
P          7.07892        1.63961       -4.21099
C          6.82220        3.41433       -3.94503
C          7.29760        4.35985       -5.08517
C          6.56636        4.13615       -6.41254
N          7.11793        4.99866       -7.43756
C          6.51574        4.83625       -8.76823
C          7.33205        5.62937       -9.78505
O          8.68984        5.20889       -9.81127
O          7.17179        5.69917       -4.62379
C          8.87278        1.30361       -4.31262
C          9.33466       -0.15247       -4.49105
C          8.75397       -0.85715       -5.70987
F          8.86028       -0.10016       -6.83097
F          9.35573       -2.03416       -5.93197
F          7.41087       -1.10849       -5.53347
H          2.03049       -2.97925       -4.40943
H          2.08842       -2.86882       -2.64119
H          3.55124       -2.56878       -3.60089
H          0.99297       -0.82356       -3.66268
H          2.43098       -0.50372       -4.61764
H          2.27935       -0.47908       -1.53828
H          2.28622        0.96398       -2.61062
H          6.58627       -0.42687       -3.03560
H          6.53307        0.97097       -1.94009
H          6.50321        1.26981       -5.44031
H          7.34794        3.68184       -3.01536
H          5.74063        3.52662       -3.77645
H          8.37888        4.23774       -5.25620
H          5.46965        4.26319       -6.24437
H          6.70030        3.09278       -6.75070
H          7.05617        5.97442       -7.13776
H          5.45195        5.14750       -8.80814
H          6.56064        3.76639       -9.02889
H          7.25473        6.71355       -9.56341
H          6.92661        5.47358      -10.79440
H          8.96834        5.15092       -8.88011
H          6.22734        5.92637       -4.55701
H          9.31845        1.72077       -3.39704
H          9.23136        1.92474       -5.14833
H          9.10520       -0.76956       -3.61174
H         10.42727       -0.15407       -4.60677
