80

C          2.39694        1.15324       -1.57247
C          3.13718        0.31323       -0.52960
C          4.10145       -0.70474       -1.15221
C          4.81409       -1.56428       -0.09730
C          5.78239       -2.53473       -0.73744
O          6.39572       -3.34329        0.35012
C          7.31128       -4.21849        0.00277
O          7.72494       -4.47095       -1.12125
C          7.89467       -4.95800        1.21578
N          8.73842       -6.06037        0.64985
C         10.10533       -6.18568        1.27656
C         10.91531       -7.29520        0.58743
C         11.44860       -6.90578       -0.80165
C         12.19909       -8.07990       -1.44424
C         12.91948       -7.76949       -2.75914
C         12.15879       -8.05563       -4.11301
C         10.81702       -7.30684       -4.48002
C         10.74114       -5.73684       -4.66014
C         11.64119       -4.96162       -5.70583
C         11.58032       -5.27977       -7.25476
C         10.24186       -5.11096       -8.08353
C          9.52546       -3.70901       -8.10265
F         10.39513       -2.72401       -8.37887
F          8.57572       -3.73267       -9.05259
F          8.93356       -3.45283       -6.91949
F         10.58139       -5.39884       -9.36477
F          9.33954       -6.03313       -7.65835
F         12.51061       -4.46784       -7.81681
F         11.97180       -6.56731       -7.43434
F         11.32657       -3.64739       -5.54449
F         12.93395       -5.13220       -5.33662
F          9.44024       -5.46466       -4.93568
F         11.02917       -5.17340       -3.44802
F         10.35171       -7.87592       -5.61381
F          9.91192       -7.58649       -3.47975
F         13.02788       -7.86555       -5.13408
F         11.81499       -9.37643       -4.08477
F         13.38206       -6.47786       -2.78581
F         14.02101       -8.58465       -2.83814
O         10.15719       -8.50754        0.59458
C          8.90799       -8.41292       -0.09750
C          8.02253       -7.39569        0.61652
C          8.29445       -9.81584       -0.14857
C          9.09426      -10.72958       -1.05185
C          8.82471      -10.77187       -2.42761
C          9.59238      -11.56908       -3.27824
C         10.64303      -12.33193       -2.76206
C         10.91735      -12.29958       -1.39230
C         10.14629      -11.50377       -0.54167
H          1.72468        1.87739       -1.09397
H          1.78626        0.52240       -2.23517
H          3.09721        1.71819       -2.20515
H          2.40789       -0.21968        0.10329
H          3.70120        0.97553        0.14821
H          4.84884       -0.17165       -1.76449
H          3.54561       -1.35838       -1.84653
H          4.07096       -2.12630        0.49033
H          5.35984       -0.91750        0.60787
H          6.60096       -2.03305       -1.27187
H          5.29209       -3.23743       -1.42557
H          7.11485       -5.36331        1.87022
H          8.52242       -4.27308        1.80144
H          8.83135       -5.75074       -0.35245
H          9.95150       -6.42655        2.33667
H         10.59745       -5.20751        1.19145
H         11.77319       -7.50882        1.24423
H         12.13142       -6.05328       -0.67334
H         10.64271       -6.55233       -1.45883
H         11.54336       -8.94743       -1.59689
H         12.99530       -8.41539       -0.76260
H          9.06904       -8.07080       -1.13718
H          7.82919       -7.69194        1.65724
H          7.07250       -7.24043        0.08743
H          7.26048       -9.73151       -0.51845
H          8.24747      -10.21661        0.87541
H          8.00216      -10.18149       -2.83892
H          9.36897      -11.59658       -4.34512
H         11.24262      -12.95625       -3.42483
H         11.73007      -12.90091       -0.98357
H         10.36201      -11.48218        0.52783
