73

F          2.67617        7.40256        4.09829
C          1.76812        6.68890        4.92014
C          2.52033        6.02251        6.05529
C          3.65862        5.09460        5.57054
C          4.85813        5.84558        5.10855
N          5.63674        6.58994        5.92465
N          6.59884        7.12354        5.19885
N          6.45313        6.72027        3.95749
N          5.35970        5.92153        3.85601
C          4.92737        5.30643        2.58582
C          5.59528        3.94124        2.31661
C          5.21249        2.87122        3.31359
C          3.99055        2.19026        3.18419
C          3.60383        1.23726        4.12941
C          4.43588        0.95047        5.21703
C          5.66018        1.61125        5.34762
C          6.04581        2.56496        4.39986
C          7.30617        7.22608        2.80289
O          6.58609        7.99665        1.93499
C          6.45198        9.42367        2.27289
C          7.40363       10.26562        1.43970
C          7.12831       11.76757        1.60010
C          8.07167       12.64021        0.76366
C          7.70882       14.12786        0.80057
C          8.64415       15.00728       -0.03589
C          8.19795       16.47115       -0.10972
C          9.14357       17.36285       -0.92063
C          8.63677       18.79903       -1.08569
C          9.58103       19.69619       -1.89106
C          9.04510       21.11530       -2.10443
C          9.99465       22.00413       -2.91001
H          1.26516        5.95439        4.27155
H          1.02767        7.41020        5.29285
H          1.80194        5.41679        6.62746
H          2.92394        6.77764        6.74472
H          3.31044        4.40600        4.78932
H          3.99638        4.46988        6.41068
H          5.14438        6.03641        1.79549
H          3.83762        5.21047        2.66205
H          6.68834        4.06416        2.28128
H          5.27945        3.65373        1.30194
H          3.34388        2.39323        2.32649
H          2.65842        0.70672        4.00870
H          4.13928        0.19925        5.94964
H          6.32266        1.37500        6.18141
H          7.01645        3.05829        4.49730
H          7.67815        6.33520        2.27890
H          8.12757        7.73768        3.32984
H          6.61488        9.55902        3.35460
H          5.40424        9.66890        2.05122
H          7.28641        9.97970        0.38260
H          8.44687       10.04070        1.71767
H          7.20689       12.05505        2.66246
H          6.08581       11.97418        1.30221
H          8.05445       12.29094       -0.28332
H          9.10853       12.50084        1.11501
H          7.70963       14.48311        1.84567
H          6.67350       14.25319        0.43779
H          8.70832       14.59860       -1.05962
H          9.66625       14.95207        0.37755
H          8.09880       16.87824        0.91198
H          7.18732       16.51647       -0.55293
H          9.29552       16.91727       -1.91961
H         10.13746       17.37554       -0.44007
H          8.47017       19.24628       -0.08992
H          7.64797       18.77877       -1.57727
H          9.77539       19.23191       -2.87416
H         10.55996       19.74816       -1.38275
H          8.84645       21.57997       -1.12374
H          8.06891       21.05861       -2.61494
H         10.96182       22.11968       -2.39844
H          9.57667       23.00895       -3.06113
H         10.19625       21.57463       -3.90281
