102

C         17.16692      -14.00827       -1.50874
C         16.53166      -12.64266       -1.23413
C         17.31528      -11.80012       -0.22122
C         16.68695      -10.43202        0.06390
C         17.48353       -9.58986        1.06539
C         16.84120       -8.23736        1.39267
C         17.64884       -7.41275        2.39980
C         16.97376       -6.10532        2.82767
C         17.78015       -5.33121        3.87542
C         17.07280       -4.08938        4.42870
C         17.86930       -3.40162        5.54184
C         17.14451       -2.22963        6.21307
C         17.93162       -1.65708        7.39596
C         17.20462       -0.55873        8.17938
C         17.98495       -0.13913        9.42999
C         17.25006        0.86782       10.32641
C         18.02623        1.13810       11.61445
C         18.17599       -0.11220       12.50968
N         18.02746        0.43491       13.86356
C         17.45262        1.65684       13.81576
N         17.04629        2.35411       14.86526
C         17.25082        2.00993       16.27581
C         17.63645        3.25970       17.07555
C         16.54073        4.33221       17.15667
C         17.07205        5.67195       17.67837
C         15.99162        6.75358       17.78068
C         16.59724        8.11242       18.12374
O         15.58177        9.12387       18.32154
C         15.14346        9.76802       17.20121
O         15.54130        9.51460       16.07549
C         14.14335       10.79959       17.56781
C         13.60274       11.60038       16.64260
N         17.36192        2.11234       12.53443
C         17.44741        3.53368       12.19325
C         16.24885        4.39370       12.60112
O         15.46998        4.10909       13.50285
O         16.22663        5.50746       11.88586
C         15.25332        6.55253       12.28899
C         15.71828        7.33094       13.51009
C         17.09282        7.98741       13.36919
H         16.58261      -14.58788       -2.23654
H         17.23902      -14.60725       -0.58854
H         18.18557      -13.90120       -1.91095
H         15.50020      -12.78276       -0.86826
H         16.44177      -12.08075       -2.17936
H         18.34760      -11.65883       -0.58783
H         17.40798      -12.36245        0.72512
H         15.65958      -10.57525        0.44329
H         16.58247       -9.87294       -0.88261
H         18.50277       -9.42515        0.67343
H         17.61175      -10.16291        2.00088
H         15.82510       -8.40563        1.79183
H         16.70703       -7.65722        0.46282
H         18.64430       -7.19139        1.97653
H         17.83608       -8.02691        3.29857
H         15.97340       -6.33285        3.23647
H         16.80088       -5.46706        1.94368
H         18.75500       -5.03941        3.44708
H         18.01406       -6.00907        4.71572
H         16.08157       -4.38147        4.81878
H         16.87732       -3.37346        3.61140
H         18.83656       -3.05272        5.13992
H         18.11955       -4.15128        6.31355
H         16.15509       -2.56977        6.56630
H         16.94664       -1.43541        5.47276
H         18.90374       -1.27242        7.04055
H         18.17306       -2.48303        8.08904
H         16.20715       -0.92405        8.47983
H         17.02793        0.31760        7.53302
H         18.96295        0.27884        9.13507
H         18.21145       -1.05174       10.00852
H         16.24865        0.49055       10.59201
H         17.09630        1.80934        9.77437
H         19.02784        1.53757       11.36878
H         19.14709       -0.60467       12.38789
H         17.37732       -0.84221       12.30089
H         17.83962       -0.18283       14.64680
H         16.40032        3.12642       14.62074
H         18.05845        1.26747       16.34170
H         16.33314        1.55060       16.67987
H         18.54817        3.68616       16.62533
H         17.91510        2.93640       18.09034
H         15.72023        3.97210       17.79921
H         16.08949        4.50938       16.16522
H         17.87416        6.01900       17.00322
H         17.54739        5.52448       18.66310
H         15.24957        6.48222       18.54800
H         15.45192        6.83696       16.82438
H         17.28140        8.44540       17.32964
H         17.13857        8.07818       19.07880
H         13.88592       10.87686       18.62489
H         13.88668       11.50584       15.59316
H         12.87581       12.36679       16.90859
H         17.57202        3.61295       11.10737
H         18.34217        3.99479       12.65291
H         14.28666        6.06092       12.45580
H         15.20134        7.18339       11.39347
H         15.68965        6.68076       14.39736
H         14.95652        8.10500       13.69306
H         17.89627        7.24359       13.26519
H         17.30413        8.59774       14.25500
H         17.13634        8.64579       12.48933
