89

C          1.73223        4.28786       12.24448
C          2.50359        3.19977       11.49324
C          3.84913        3.68527       10.94354
C          4.64183        2.60616       10.19878
C          5.99351        3.09932        9.67246
C          6.80911        2.02114        8.95102
C          8.17958        2.51250        8.47334
C          9.02395        1.42842        7.79607
C         10.42385        1.90467        7.39355
C         11.29444        0.78929        6.80478
C         12.74653        1.17657        6.48459
C         13.56649        1.75067        7.65526
C         13.59315        0.92557        8.95374
C         14.18036       -0.48262        8.79404
N         14.48197       -1.10872       10.10058
C         13.56961       -1.70393       10.87316
N         13.74932       -1.98203       12.20443
C         12.60152       -2.57868       12.67380
N         11.71411       -2.69245       11.73468
N         12.30026       -2.13834       10.60911
C         11.66070       -2.43300        9.33946
C         12.44680       -3.50276        8.56662
O         13.48514       -3.98628        8.97080
O         11.82394       -3.75566        7.41667
C         12.48968       -4.64888        6.45265
C         12.52272       -3.95872        5.09849
C         13.23767       -2.59619        5.08636
C         14.68779       -2.58536        5.59706
C         15.67271       -3.43354        4.78271
C         17.10130       -3.36629        5.32633
C         15.83753       -0.88142       10.65670
C         16.71394       -2.13953       10.69053
C         16.98526       -2.75911        9.31432
C         17.90659       -3.97802        9.40056
H          0.77337        3.91231       12.62720
H          1.51481        5.14628       11.59161
H          2.30741        4.66507       13.10328
H          1.88770        2.81701       10.66191
H          2.67415        2.33929       12.16259
H          4.46086        4.07614       11.77614
H          3.67801        4.54310       10.26946
H          4.03811        2.22170        9.35804
H          4.80480        1.74483       10.87099
H          6.58605        3.49821       10.51500
H          5.83114        3.95192        8.99021
H          6.23404        1.63877        8.08973
H          6.94804        1.15843        9.62728
H          8.73809        2.91849        9.33582
H          8.04517        3.35919        7.77831
H          8.49288        1.04321        6.90858
H          9.12132        0.56736        8.48388
H         10.91309        2.34029        8.28172
H         10.34398        2.72888        6.66454
H         10.82475        0.40482        5.88505
H         11.28068       -0.06751        7.50403
H         12.74782        1.92756        5.67901
H         13.26325        0.29965        6.06203
H         13.18927        2.75138        7.91308
H         14.60279        1.90645        7.31318
H         12.58112        0.84818        9.38514
H         14.19660        1.47097        9.69647
H         15.13214       -0.45431        8.24822
H         13.53034       -1.13798        8.20517
H         14.58261       -1.76815       12.74085
H         12.46740       -2.90554       13.69948
H         11.54068       -1.52959        8.72648
H         10.65600       -2.79938        9.58143
H         11.88809       -5.56677        6.42815
H         13.48647       -4.88546        6.84429
H         11.49289       -3.82878        4.73314
H         13.00589       -4.66061        4.40013
H         12.63938       -1.88512        5.67867
H         13.21526       -2.21012        4.05515
H         14.72676       -2.91264        6.65085
H         15.04319       -1.54034        5.59973
H         15.65579       -3.09856        3.73249
H         15.34334       -4.48530        4.76830
H         17.47738       -2.33217        5.34038
H         17.79368       -3.96115        4.71644
H         17.15147       -3.75272        6.35467
H         15.75548       -0.41531       11.65398
H         16.29889       -0.11771       10.01746
H         16.26620       -2.90501       11.34714
H         17.66435       -1.85166       11.16934
H         17.43528       -1.99847        8.65395
H         16.03053       -3.05453        8.85206
H         18.87660       -3.71931        9.84856
H         18.10431       -4.39769        8.40572
H         17.45693       -4.77464       10.01075
