42

F          1.06578        0.76598       -1.35048
C          2.35343        1.12926       -1.56558
C          2.74609        2.33291       -0.65611
C          2.29754        2.38862        0.85465
C          2.68282        1.24314        1.86314
C          4.16794        1.05896        2.19056
O          4.79171        0.37405        1.12112
C          6.18620        0.55830        1.03934
C          6.59944       -0.07590       -0.30213
C          8.05907       -0.02541       -0.54734
N          8.77982        0.99976       -1.06496
I          8.01554        2.79127       -1.72937
C         10.12313        0.65884       -1.11696
C         10.22387       -0.60572       -0.61644
N          8.94628       -1.01252       -0.26838
C          8.59354       -2.30880        0.27494
C          8.34980       -3.36195       -0.60898
C          7.99822       -4.60767       -0.08526
C          7.89576       -4.78391        1.29787
C          8.14919       -3.71882        2.16741
C          8.50251       -2.46691        1.65889
F          2.06511        1.58395        3.03714
F          2.13674        0.07449        1.42340
F          2.83674        3.54662        1.35298
F          0.94887        2.50556        0.86728
F          4.11144        2.47827       -0.72275
F          2.19664        3.43496       -1.24297
F          3.16282        0.05543       -1.32967
H          2.47307        1.44259       -2.61673
H          4.21651        0.47933        3.12947
H          4.61484        2.05276        2.36402
H          6.71096        0.06253        1.87890
H          6.44699        1.63412        1.06018
H          6.06511        0.43848       -1.11364
H          6.27300       -1.12467       -0.30912
H         10.87736        1.33445       -1.50085
H         11.08419       -1.24964       -0.47917
H          8.42928       -3.20463       -1.68502
H          7.80175       -5.43923       -0.76171
H          7.61777       -5.75789        1.70043
H          8.07580       -3.86016        3.24541
H          8.71230       -1.62799        2.32307
