60

C          0.29015       -0.17058       -0.48063
C          1.80956       -0.04576       -0.34428
C          2.54065       -1.38531       -0.48771
C          4.06315       -1.26973       -0.36099
C          4.78424       -2.61485       -0.50292
C          6.31058       -2.49096       -0.39782
C          6.99043       -3.85557       -0.52975
S          8.80640       -3.59476       -0.44779
C          9.41659       -5.18968       -0.62244
N         10.69735       -5.52565       -0.69054
N         10.73434       -6.88666       -0.82016
C          9.49294       -7.30534       -0.82328
O          8.58700       -6.28244       -0.70235
C          9.00377       -8.64544       -0.96584
N          7.72311       -8.98301       -1.00373
N          7.71480      -10.33142       -1.20455
C          8.94398      -10.82618       -1.29197
N          9.80215       -9.78711       -1.12770
C         11.19727       -9.91622       -1.23248
N         11.83475      -10.49446       -2.20200
N         13.17535      -10.38624       -1.87990
C         13.23676       -9.74875       -0.72760
O         11.97934       -9.43752       -0.23620
S         14.65777       -9.31357        0.14050
C         13.99522       -8.10065        1.35641
C         15.18504       -7.48384        2.08721
C          6.44598      -11.02564       -1.40447
C          6.23992      -11.43357       -2.91320
N          6.34584      -10.34429       -3.85567
N          7.32918      -12.36570       -3.24524
N          4.86004      -11.89091       -2.97391
H         -0.20365        0.80457       -0.37314
H         -0.12711       -0.83938        0.28701
H          0.00806       -0.57801       -1.46304
H          2.05801        0.40051        0.63337
H          2.19160        0.65799       -1.10293
H          2.28837       -1.83424       -1.46479
H          2.16246       -2.08932        0.27463
H          4.31815       -0.81986        0.61415
H          4.44218       -0.57045       -1.12634
H          4.52141       -3.07060       -1.47326
H          4.41849       -3.31015        0.27241
H          6.58201       -2.03299        0.56720
H          6.68132       -1.81367       -1.18454
H          6.75656       -4.32945       -1.49272
H          6.69867       -4.53206        0.28467
H          9.22576      -11.85367       -1.48674
H         13.32816       -8.63124        2.04743
H         13.41946       -7.34899        0.80085
H         15.76974       -8.24053        2.62763
H         14.81548       -6.75842        2.82410
H         15.85387       -6.95308        1.39723
H          5.66113      -10.33109       -1.09269
H          6.42841      -11.90947       -0.75081
H          7.28188       -9.94679       -3.90589
H          5.66052       -9.61334       -3.67334
H          7.39337      -12.45744       -4.26124
H          7.13739      -13.29523       -2.86834
H          4.60341      -12.08265       -3.94338
H          4.69834      -12.73327       -2.42220
