66

O          1.00759        0.33376        1.26386
C          0.06601        0.11681        0.27549
C         -0.67530        1.16573       -0.27504
C         -1.61091        0.90481       -1.27732
C         -1.80170       -0.40170       -1.73143
C         -1.05270       -1.43955       -1.17237
C         -0.11312       -1.20880       -0.16101
C          0.67000       -2.33987        0.45914
N          2.09646       -2.29577        0.08848
C          2.87861       -3.35969        0.69832
C          4.33454       -3.29774        0.22086
C          5.16300       -4.48565        0.72681
C          6.67853       -4.44634        0.45479
C          7.42548       -5.66235        1.07090
C          8.70864       -5.09103        1.71181
C          8.42856       -3.62804        1.82926
N          7.31538       -3.33774        1.22862
C          9.28893       -2.60884        2.47896
C          9.65001       -2.91289        3.95080
C         10.50855       -1.78071        4.53006
C         10.89420       -2.04862        5.98732
S         11.86655       -0.64634        6.60815
O         13.13148       -0.60769        5.91227
O         11.01076        0.51488        6.68689
Cl        12.23206       -1.28993        8.54768
C          7.00276       -4.21120       -1.05782
C          8.47471       -4.19543       -1.39616
C          9.22912       -3.01630       -1.26575
C         10.60722       -3.01454       -1.49535
C         11.25444       -4.19577       -1.86898
C         10.51137       -5.36799       -2.03879
C          9.13372       -5.36524       -1.80800
H          0.97714        1.27092        1.51600
H         -0.51998        2.18691        0.08362
H         -2.18905        1.72671       -1.70040
H         -2.53096       -0.61128       -2.51344
H         -1.20073       -2.46370       -1.52096
H          0.25927       -3.29555        0.09856
H          0.53000       -2.32388        1.56130
H          2.46570       -1.38575        0.37432
H          2.43816       -4.32361        0.38871
H          2.85296       -3.35407        1.81308
H          4.76914       -2.33948        0.56572
H          4.32803       -3.25556       -0.87772
H          4.78469       -5.41516        0.27151
H          5.02249       -4.60330        1.81431
H          7.64382       -6.42651        0.31873
H          6.79275       -6.12378        1.84080
H          9.60645       -5.21713        1.08255
H          8.95016       -5.53006        2.68999
H          6.96772       -2.37964        1.15704
H          8.82235       -1.61511        2.39645
H         10.21829       -2.57235        1.88065
H         10.19439       -3.86754        4.01221
H          8.72695       -3.02937        4.54043
H          9.95741       -0.82943        4.46978
H         11.42200       -1.66172        3.92708
H         11.53196       -2.93500        6.10540
H         10.02348       -2.12672        6.65248
H          6.53335       -3.26792       -1.37344
H          6.48764       -5.01253       -1.60825
H          8.72993       -2.07831       -1.00869
H         11.17261       -2.08614       -1.40402
H         12.32884       -4.19573       -2.05412
H         11.00383       -6.28430       -2.36578
H          8.56107       -6.28203       -1.96475
