72

C         11.41880       -4.99474       -1.42841
C         11.02101       -3.79826       -0.56078
C         11.48368       -2.45155       -1.12763
C         11.09022       -1.25374       -0.25795
C         11.51491        0.09972       -0.83640
C         11.13251        1.28914        0.05027
C         11.44355        2.65234       -0.57625
C         11.08118        3.83043        0.33678
C         11.31964        5.22127       -0.26984
C         10.38292        5.55933       -1.43866
C         10.46126        7.00338       -1.90140
O         11.76782        7.25934       -2.44761
C         11.92997        8.58505       -2.87604
C         13.36842        8.72386       -3.40686
C         14.44050        8.45633       -2.34688
C         14.54399        9.62610       -1.37323
N         14.69932       10.87765       -2.12111
C         14.16464       11.06154       -3.32249
N         14.24778       12.31330       -3.95995
C         14.40608       12.30075       -5.46348
C         13.10770       12.55858       -6.23249
O         12.21774       11.46105       -5.98085
C         15.57537       13.16427       -5.97751
C         16.89291       12.95861       -5.22736
C         14.35755       13.49033       -3.16929
O         14.65084       13.43412       -1.97891
C         14.07665       14.83232       -3.79650
N         13.54969       10.06912       -3.97112
H         11.07268       -5.94179       -0.99216
H         12.51133       -5.06117       -1.54112
H         10.98785       -4.91753       -2.43791
H         11.43500       -3.92490        0.45402
H          9.92476       -3.78036       -0.43746
H         11.06479       -2.32086       -2.14150
H         12.58069       -2.46690       -1.25587
H         11.52789       -1.37498        0.74870
H          9.99564       -1.25520       -0.11088
H         11.05682        0.22668       -1.83358
H         12.60645        0.10311       -1.00418
H         11.65019        1.20340        1.02171
H         10.05362        1.23820        0.28008
H         10.90169        2.73135       -1.53417
H         12.51731        2.70707       -0.83052
H         11.66175        3.74728        1.27020
H         10.02124        3.74689        0.63599
H         12.36823        5.30625       -0.60028
H         11.18256        5.98084        0.51929
H          9.33836        5.37352       -1.13665
H         10.57589        4.90302       -2.30129
H         10.28279        7.69756       -1.05614
H          9.69898        7.21024       -2.67594
H         11.75305        9.30558       -2.04888
H         11.21376        8.84320       -3.68410
H         13.49253        8.00564       -4.23131
H         15.41157        8.29414       -2.83621
H         14.17742        7.53723       -1.81003
H         15.42066        9.52351       -0.72194
H         13.65679        9.69203       -0.72284
H         15.02085       11.74759       -1.67244
H         14.69102       11.26034       -5.67799
H         13.35571       12.61556       -7.30499
H         12.63731       13.50912       -5.93743
H         11.37125       11.60726       -6.43033
H         15.30588       14.22900       -6.00282
H         15.70921       12.87210       -7.03005
H         16.84831       13.30378       -4.18512
H         17.69745       13.52036       -5.71816
H         17.18878       11.89957       -5.21500
H         13.46797       14.80960       -4.70304
H         15.02888       15.33539       -4.01590
H         13.57113       15.43017       -3.02922
H         12.97730       10.34062       -4.78248
