60

C          0.78670       -0.07462        0.03502
C          2.30070       -0.30150       -0.00051
C          2.73537       -1.08149       -1.23034
O          4.16527       -1.25570       -1.18059
C          4.70066       -1.84175       -2.34697
C          6.21763       -2.03272       -2.14793
C          6.51762       -3.00440       -0.97249
C          6.78804       -2.11834        0.25825
C          7.07443       -0.80141       -0.33927
N          6.80340       -0.73075       -1.59975
C          6.97858        0.51148       -2.37795
C          5.63963        1.21860       -2.66776
C          5.75544        2.74116       -2.83273
C          5.34242        3.61915       -1.59106
C          6.16477        3.53690       -0.24824
C          7.67284        3.98934       -0.23587
F          7.84082        5.16123       -0.85052
F          8.07809        4.08803        1.03857
F          8.44918        3.05605       -0.84699
F          5.51061        4.29996        0.65038
F          6.13305        2.23098        0.19347
F          5.31508        4.91353       -1.97587
F          4.07187        3.23548       -1.25610
F          7.01644        3.11108       -3.22729
F          4.89403        3.12577       -3.82223
C          6.92041       -2.41115       -3.47569
C          6.41303       -3.70290       -4.08460
C          5.37960       -3.68372       -5.03547
C          4.88972       -4.86596       -5.58474
C          5.41624       -6.11370       -5.21020
C          6.46423       -6.12700       -4.27891
C          6.95837       -4.94330       -3.72775
C          4.87434       -7.38785       -5.80159
H          0.50090        0.48927        0.93167
H          0.23558       -1.02541        0.05227
H          0.44273        0.49745       -0.83841
H          2.62294       -0.85070        0.89817
H          2.82848        0.66579        0.01212
H          2.46769       -0.53789       -2.15708
H          2.24706       -2.07275       -1.27130
H          4.48789       -1.22253       -3.23985
H          4.27248       -2.84124       -2.54460
H          7.40954       -3.60027       -1.20134
H          5.68727       -3.69927       -0.81637
H          7.61673       -2.45998        0.89530
H          5.91044       -2.00725        0.91902
H          7.46258        0.07401        0.18559
H          7.49914        0.25611       -3.30826
H          7.65097        1.14874       -1.79667
H          4.91429        0.99905       -1.87466
H          5.21061        0.85507       -3.60933
H          8.00176       -2.48153       -3.28125
H          6.77264       -1.60046       -4.20569
H          4.96240       -2.72939       -5.36621
H          4.09103       -4.82108       -6.32744
H          6.91122       -7.07958       -3.98835
H          7.79485       -4.99471       -3.02732
H          4.87137       -7.34659       -6.89988
H          3.83490       -7.55772       -5.48343
H          5.46572       -8.25916       -5.49554
