21

O          2.57805       -1.38520       -0.15928
C          2.20648       -0.05164        0.13619
C          2.80632        0.79666       -1.01256
P          2.23889        2.50412       -0.86938
N          3.10286        3.46793       -2.01833
O          2.67108        3.02131       -3.30087
O          2.62532        4.79847       -1.78908
N          0.60205        2.58921       -0.84746
C          4.34527        0.73543       -1.05292
H          2.26219       -1.96918        0.54855
H          2.62551        0.28722        1.10374
H          1.10987        0.06651        0.17566
H          2.38912        0.42508       -1.96612
H          2.66378        3.11157        0.32720
H          3.47007        3.09638       -3.85780
H          3.43172        5.34678       -1.84858
H          0.07238        2.07750       -1.55150
H          0.16600        3.47298       -0.58647
H          4.79164        1.16598       -0.14526
H          4.75784        1.25183       -1.92624
H          4.63375       -0.32064       -1.10322
