53

C          1.07837        1.68655        1.41231
C          2.58897        1.51009        1.53145
S          3.01726       -0.17173        0.92224
C          4.73765       -0.08928        0.99888
N          5.53927        0.83523        1.47365
N          6.83399        0.39230        1.22611
C          6.73143       -0.75400        0.62958
O          5.42797       -1.15402        0.45311
C          7.83694       -1.57927        0.07873
C          7.84180       -3.03078        0.48121
N          8.27544       -3.75638       -0.51111
C          8.61199       -3.01895       -1.74339
C          7.96308       -1.63530       -1.50220
C          6.65817       -1.45877       -2.19104
N          6.21436       -0.37762       -2.75600
N          4.89053       -0.61767       -3.09801
C          4.62819       -1.84728       -2.73044
O          5.72097       -2.46479       -2.14459
S          3.13844       -2.68700       -2.97663
C          3.18729       -3.94956       -1.64043
C          1.82776       -4.64400       -1.60160
C          7.49865       -3.57006        1.80876
C          8.40185       -2.96481        2.94272
C          8.14006       -3.67460        4.24847
C          8.98921       -4.70624        4.67379
C          8.74144       -5.38314        5.87005
C          7.63420       -5.03892        6.64882
C          6.78082       -4.01235        6.23131
C          7.03104       -3.33409        5.03762
H          0.80761        2.68652        1.77566
H          0.52896        0.95187        2.01601
H          0.74062        1.60536        0.37064
H          2.93871        1.59312        2.56754
H          3.14064        2.22802        0.91225
H          8.76079       -1.12964        0.48900
H          8.39601       -4.76746       -0.43754
H          8.21084       -3.54893       -2.61560
H          9.70581       -2.95758       -1.83725
H          8.60691       -0.81847       -1.84595
H          3.40342       -3.43303       -0.69565
H          3.99361       -4.66192       -1.85743
H          1.02034       -3.93611       -1.37272
H          1.83295       -5.41668       -0.82137
H          1.59554       -5.13511       -2.55612
H          7.57458       -4.66676        1.81582
H          6.45155       -3.30681        2.02949
H          8.19454       -1.88857        3.03068
H          9.45784       -3.07954        2.65777
H          9.86307       -4.97091        4.07347
H          9.41730       -6.17426        6.19581
H          7.43857       -5.56311        7.58453
H          5.92284       -3.73330        6.84369
H          6.36798       -2.52237        4.72787
