47

C          2.90408        0.93194        0.24750
C          3.74104       -0.04829       -0.57831
C          4.10200       -1.31606        0.21462
C          4.88977       -2.28789       -0.63479
O          5.30937       -3.42798        0.24226
C          5.47742       -4.59110       -0.33394
O          5.32643       -4.96333       -1.45947
N          5.88070       -5.59828        0.78409
C          6.98639       -5.11813        1.73310
C          8.37946       -5.19714        1.11283
C          8.66120       -4.05813        0.09294
C         10.06410       -4.01045       -0.28821
C         11.23649       -3.99779       -0.58188
C          8.63983       -6.60501        0.54579
C          7.54321       -7.05262       -0.43391
C          6.16741       -6.98464        0.22409
C          7.78382       -8.46558       -0.97981
C          8.88813       -8.46411       -2.03364
O          9.27273       -7.47229       -2.62020
O          9.34886       -9.71135       -2.23829
C         10.35815       -9.84380       -3.27469
H          2.66997        1.83226       -0.33446
H          3.43859        1.25166        1.15359
H          1.95175        0.48172        0.56162
H          4.66675        0.44676       -0.91485
H          3.19138       -0.32762       -1.49192
H          3.18380       -1.80541        0.57672
H          4.69435       -1.04023        1.10178
H          5.82613       -1.85814       -1.01882
H          4.31385       -2.71021       -1.46815
H          5.03062       -5.66821        1.36151
H          6.91632       -5.78919        2.60080
H          6.71007       -4.10581        2.04813
H          9.06953       -5.03467        1.95647
H          8.36798       -3.09256        0.53806
H          8.05553       -4.17914       -0.82221
H         12.27119       -3.97055       -0.85452
H          8.70439       -7.32597        1.37892
H          9.61444       -6.61012        0.04002
H          7.54775       -6.38419       -1.30886
H          6.09125       -7.66508        1.08606
H          5.36012       -7.20991       -0.48267
H          6.87872       -8.85325       -1.47756
H          8.03151       -9.18515       -0.18550
H         10.65049      -10.89691       -3.25614
H         11.21529       -9.19615       -3.05507
H          9.93572       -9.57392       -4.25002
