57

O          5.22051       -1.43391       -5.98676
C          4.08047       -0.67145       -5.52205
C          4.53760        0.27808       -4.43725
O          4.94991       -0.49365       -3.30889
C          5.83611        0.15832       -2.41103
C          6.55620       -0.94529       -1.63430
N          7.10719       -1.98220       -2.54909
C          7.98367       -1.59090       -3.52875
N          7.75307       -1.48654       -4.84250
N          8.87673       -1.15833       -5.54210
C          9.81151       -1.04136       -4.62668
N          9.30582       -1.30920       -3.36135
C         10.02065       -1.33774       -2.07649
C         10.23544        0.05601       -1.47848
C         10.77213       -0.01724       -0.04585
C         11.09208        1.36250        0.53786
C         11.58214        1.29307        1.98731
C         11.97695        2.66939        2.51832
O         12.36537        2.61055        3.90834
C         13.67324        2.27189        4.14384
O         14.47347        2.02804        3.25952
C         13.93841        2.25608        5.60191
C         15.15376        1.96184        6.07725
C         11.24145       -0.67140       -4.88386
O         11.46317       -0.66800       -6.26291
C         12.79184       -0.25786       -6.59612
H          4.95381       -1.97367       -6.74688
H          3.30969       -1.35282       -5.12725
H          3.65247       -0.08711       -6.35154
H          3.70663        0.95597       -4.17233
H          5.37991        0.89367       -4.80437
H          5.30159        0.83033       -1.71476
H          6.56656        0.77219       -2.97527
H          5.86316       -1.47272       -0.96691
H          7.35541       -0.52304       -1.01189
H          6.32664       -2.48366       -2.97591
H          6.82277       -1.53458       -5.31686
H         10.97799       -1.85155       -2.24160
H          9.42122       -1.97427       -1.41046
H          9.28293        0.61119       -1.49593
H         10.93365        0.62766       -2.10989
H         11.68199       -0.64074       -0.02294
H         10.03536       -0.53168        0.59508
H         10.19556        2.00436        0.47708
H         11.85988        1.84905       -0.08766
H         12.45425        0.62478        2.05382
H         10.79663        0.86947        2.63387
H         11.12607        3.36441        2.49787
H         12.80681        3.08941        1.93132
H         13.09994        2.49728        6.25646
H         15.97322        1.72771        5.39585
H         15.35811        1.95088        7.14721
H         11.90572       -1.39206       -4.35687
H         11.43970        0.32517       -4.43153
H         12.85877       -0.29263       -7.68821
H         13.54325       -0.94005       -6.16182
H         12.99099        0.77119       -6.24947
