81

C          2.48845        0.47795       -1.36961
C          3.56604        0.19240       -0.32043
C          4.18479        1.46354        0.27174
C          5.26615        1.19245        1.32289
C          5.88454        2.46820        1.90400
C          6.99363        2.20492        2.92841
C          7.61616        3.48841        3.48810
C          8.79340        3.23621        4.43752
C          9.40434        4.52988        4.98854
C         10.67727        4.27201        5.80661
N         11.29617        5.49718        6.34522
C         10.99717        5.94729        7.57306
N         10.12097        5.26537        8.36694
C          9.84312        5.82002        9.68614
O          9.73982        7.23181        9.60595
C         11.00512        7.77282        9.26995
N         11.57810        7.04515        8.09329
C         10.85949        9.18744        8.96544
C         10.78564       10.36876        8.73050
C         12.23320        6.24076        5.48587
C         11.64227        7.48998        4.80118
C         12.69582        8.58740        4.60563
S         13.30445        9.22752        6.19512
C         14.95344        8.46023        6.33710
S         15.67892        7.59703        5.13180
N         15.49114        8.68445        7.57077
C         14.87011        9.51873        8.57367
C         14.76711       10.90192        8.38206
C         14.20939       11.69701        9.38604
C         13.77855       11.12148       10.58399
C         13.90537        9.74278       10.77997
C         14.44758        8.93828        9.77735
C         16.75007        8.07719        7.95650
C         16.80812        6.70772        8.23177
C         18.01081        6.14705        8.66104
C         19.14523        6.95050        8.81504
C         19.07648        8.31839        8.54008
C         17.87555        8.88849        8.11176
H          2.06670       -0.45093       -1.77712
H          2.89497        1.05545       -2.21325
H          1.65802        1.05933       -0.94183
H          4.36374       -0.42380       -0.76904
H          3.13710       -0.41656        0.49350
H          3.38671        2.08301        0.71789
H          4.61537        2.07089       -0.54419
H          6.06292        0.57373        0.87353
H          4.83861        0.58636        2.14091
H          5.09187        3.07916        2.37071
H          6.29175        3.08134        1.08089
H          7.78322        1.59212        2.45925
H          6.59293        1.59777        3.75869
H          6.84070        4.07678        4.00889
H          7.96189        4.11874        2.65027
H          9.57214        2.66494        3.90300
H          8.46717        2.59293        5.27341
H          8.66135        5.06706        5.60416
H          9.64733        5.20701        4.15414
H         11.43841        3.78962        5.17730
H         10.49068        3.57488        6.63710
H          9.36761        4.77170        7.90129
H         10.64534        5.52882       10.38713
H          8.88170        5.43661       10.04128
H         11.70743        7.64107       10.11610
H         12.21079        7.61901        7.50986
H         10.71861       11.41693        8.52239
H         12.60385        5.52825        4.74051
H         13.11416        6.51484        6.08580
H         10.80610        7.88330        5.39926
H         11.21841        7.22130        3.82198
H         12.27707        9.44833        4.06989
H         13.58809        8.22772        4.06261
H         15.13204       11.34832        7.45698
H         14.13495       12.77472        9.23705
H         13.35860       11.74768       11.37129
H         13.59045        9.29451       11.72315
H         14.57530        7.86567        9.92987
H         15.91992        6.08969        8.09725
H         18.06351        5.07936        8.87666
H         20.08301        6.50834        9.15159
H         19.95987        8.94634        8.65722
H         17.81001        9.95494        7.89535
