49

C          3.45429        1.63403       -0.06424
C          3.96803        0.42793        0.72606
C          4.47333       -0.70072       -0.18624
C          4.99112       -1.87330        0.62942
O          5.45981       -2.97077       -0.24543
C          6.72177       -2.86150       -0.72046
O          7.53121       -2.02243       -0.41690
C          7.01316       -4.05317       -1.67861
C          8.48595       -4.10979       -2.08534
C          9.49189       -4.43966       -0.97049
N         10.83760       -4.41921       -1.52046
N          6.61380       -5.31105       -0.86598
C          6.55762       -6.61171       -1.63883
C          5.69088       -6.43654       -2.87856
N          6.20034       -5.30242       -3.62844
C          6.03696       -4.06147       -2.89990
C          6.22810       -2.79181       -3.73825
O          6.27896       -1.69437       -3.22212
O          6.27218       -3.06212       -5.04658
C          6.36848       -1.90400       -5.95748
C          4.99107       -1.37948       -6.31104
H          3.10405        2.42670        0.60938
H          2.61373        1.35700       -0.71725
H          4.24410        2.06055       -0.69916
H          3.16706        0.04491        1.38016
H          4.78456        0.74645        1.39504
H          5.27720       -0.32445       -0.83639
H          3.66032       -1.04574       -0.84567
H          4.20323       -2.34300        1.23134
H          5.83012       -1.58404        1.27642
H          8.74212       -3.11544       -2.47621
H          8.58979       -4.81945       -2.91917
H          9.23196       -5.41431       -0.48245
H          9.43543       -3.67034       -0.18836
H         11.02986       -5.22759       -2.11183
H         11.54369       -4.39698       -0.78693
H          5.69796       -5.09055       -0.44006
H          7.29467       -5.41014       -0.09815
H          6.16424       -7.37347       -0.95348
H          7.58961       -6.86338       -1.91024
H          4.62577       -6.32493       -2.57585
H          5.76641       -7.35069       -3.48168
H          5.83727       -5.23214       -4.57662
H          5.01007       -3.95151       -2.47985
H          6.89559       -2.31128       -6.82770
H          6.98963       -1.14373       -5.46822
H          4.36777       -2.16440       -6.75877
H          5.09493       -0.57026       -7.04698
H          4.48003       -0.96857       -5.43114
