75

C          1.36856       -0.22396       -1.63137
C          2.83065       -0.11714       -1.19169
C          3.01000        0.58128        0.16144
C          4.47120        0.64981        0.61727
C          4.65834        1.30899        1.98862
C          6.12767        1.32888        2.43330
C          6.29018        1.92003        3.83420
S          8.07531        1.87053        4.26470
C          7.99512        2.34743        5.92052
N          7.00211        2.72498        6.67434
N          7.52276        2.95820        7.95364
C          8.79065        2.71032        7.86724
O          9.20972        2.31910        6.62854
N          9.69377        2.84578        8.90619
C         10.97011        2.36976        9.00812
N         11.53751        1.71622        7.98603
C         12.90095        1.18136        8.04766
C         13.21799        0.77455        9.48979
C         12.98592        2.01587       10.35980
N         11.63485        2.57974       10.15738
C         11.06791        3.42495       11.23337
C          9.79856        2.87253       11.85534
C          8.64687        3.66732       11.91850
C          7.46842        3.14017       12.46039
C          7.44045        1.83190       12.93445
C          8.58919        1.01916       12.89139
C          9.75840        1.55911       12.34801
C          8.55816       -0.39136       13.41706
C         12.39852       -0.45796        9.94208
C         13.05086       -1.43554       10.94451
C         13.46010       -0.82891       12.31001
C         14.86184       -0.21075       12.38037
C         12.08642       -2.61346       11.15486
H          1.27744       -0.73004       -2.60211
H          0.90609        0.76942       -1.73070
H          0.77259       -0.79396       -0.90291
H          3.40931        0.42473       -1.95896
H          3.27342       -1.12631       -1.13768
H          2.41336        0.05263        0.92573
H          2.59255        1.60201        0.10532
H          5.06581        1.19583       -0.13579
H          4.88822       -0.37222        0.64914
H          4.05664        0.76888        2.73965
H          4.26532        2.33953        1.96382
H          6.72437        1.90853        1.70968
H          6.52710        0.30149        2.42010
H          5.74995        1.33863        4.59255
H          5.95718        2.96472        3.88702
H          9.22887        3.09452        9.78958
H         10.97717        1.57940        7.14931
H         13.61584        1.93455        7.67906
H         12.94518        0.31708        7.37337
H         14.29173        0.54085        9.52979
H         13.73701        2.79385       10.14368
H         13.06567        1.76773       11.42413
H         10.89052        4.43844       10.84028
H         11.86331        3.51464       11.98503
H          8.66768        4.69775       11.55462
H          6.57046        3.75635       12.50407
H          6.51499        1.42794       13.34892
H         10.65607        0.93802       12.31101
H          8.26079       -0.41140       14.47537
H          9.53887       -0.87620       13.33239
H          7.82652       -1.00211       12.86830
H         12.14472       -1.04382        9.04385
H         11.42799       -0.12940       10.35313
H         13.96788       -1.83211       10.47130
H         13.41728       -1.63389       13.05947
H         12.69644       -0.10073       12.63861
H         15.62520       -0.95206       12.10472
H         15.08947        0.12917       13.39962
H         15.00108        0.65334       11.71555
H         11.16532       -2.28297       11.66081
H         12.54526       -3.39243       11.77793
H         11.79247       -3.07570       10.20191
