57

C          2.46151        1.03247       -0.72391
C          1.87137       -0.33435       -1.11008
C          1.49616       -1.22399        0.09693
C          2.57754       -1.62634        1.11825
N          2.92781       -0.42210        2.03798
C          1.79897       -0.34621        3.02086
C          1.24925       -1.79957        3.04041
O          2.09096       -2.51280        2.09648
C          1.31234       -2.49333        4.41226
C          2.53338       -2.15138        5.23251
C          3.78600       -2.72087        4.96150
C          4.91625       -2.33837        5.68510
C          4.84071       -1.37765        6.70486
C          3.58435       -0.81684        6.98100
C          2.45121       -1.19813        6.26078
C          6.05938       -0.99537        7.50323
C          3.84707       -2.19130        0.45975
C          5.02059       -2.46586        1.37468
C          5.90663       -1.41349        1.66730
C          7.02644       -1.60243        2.47990
C          7.28538       -2.87500        2.98726
C          6.42260       -3.93125        2.68819
C          5.27955       -3.75520        1.89416
C          4.38930       -4.93512        1.59492
C          0.62425       -0.14954       -1.98775
H          3.47826        0.96450       -0.29911
H          1.80841        1.57742       -0.02108
H          2.56433        1.67257       -1.60999
H          2.62279       -0.86790       -1.71494
H          1.10823       -2.18316       -0.27865
H          0.64997       -0.75607        0.62674
H          3.06047        0.44812        1.50653
H          3.81985       -0.67177        2.50750
H          1.06767        0.38417        2.66079
H          2.19463       -0.03642        3.99456
H          0.21079       -1.81422        2.67411
H          1.23503       -3.57522        4.22805
H          0.40390       -2.20788        4.96373
H          3.87785       -3.47951        4.18524
H          5.87628       -2.80238        5.45613
H          3.48830       -0.07648        7.77794
H          1.48360       -0.75577        6.51145
H          6.15684       -1.63473        8.39431
H          6.00436        0.04310        7.85442
H          6.97908       -1.11388        6.91568
H          4.15945       -1.48380       -0.32114
H          3.52824       -3.10128       -0.06663
H          5.75526       -0.43586        1.19720
H          7.70249       -0.77235        2.68445
H          8.16732       -3.05177        3.60380
H          6.63998       -4.92675        3.07942
H          4.74223       -5.83041        2.11964
H          4.38015       -5.17242        0.51954
H          3.34863       -4.75209        1.89547
H         -0.16215        0.40455       -1.45252
H          0.20263       -1.11597       -2.29577
H          0.86722        0.41439       -2.89773
