80

C          1.13187        0.86970       -0.31940
C          2.41342        0.07500       -0.58014
C          3.29438        0.69002       -1.67490
C          4.57840       -0.11175       -1.92485
C          5.45657        0.53266       -2.97969
O          6.65337       -0.30745       -3.13119
C          7.64909        0.18739       -3.87101
O          7.62980        1.25988       -4.45260
C          8.85182       -0.76692       -3.86713
C          9.30074       -1.19731       -5.24322
C          9.09379       -2.50019       -5.65749
C          9.51251       -2.96335       -6.92318
C         10.15601       -2.14537       -7.84126
C         10.37523       -0.78743       -7.46032
C          9.95286       -0.31638       -6.16498
C         10.19600        1.03030       -5.83864
N         10.79321        1.87161       -6.69005
C         11.19877        1.44978       -7.93457
C         11.00603        0.15340       -8.32097
C         10.97934        3.30265       -6.32680
C          9.84439        4.18376       -6.85636
P         10.36547        5.93802       -6.82168
O         11.68790        6.14377       -7.46247
O          9.14804        6.74411       -7.47728
C          9.30553        7.43911       -8.76170
C          9.47080        8.92875       -8.53821
O         10.24905        6.22302       -5.25350
C         10.74998        7.48521       -4.68879
C          9.61564        8.46080       -4.44253
C         10.61552       -2.63797       -9.19346
C         10.37679       -4.11586       -9.47162
O         10.88306       -4.35029      -10.79885
C         10.72693       -5.64182      -11.25280
O         10.21370       -6.50679      -10.57781
C         11.26814       -5.78186      -12.65629
C         11.17474       -7.20365      -13.21281
C         11.70899       -7.30305      -14.64313
H          0.52394        0.39891        0.46449
H          0.51035        0.93635       -1.22459
H          1.35575        1.89642        0.00595
H          2.15668       -0.96010       -0.86153
H          2.99784       -0.00143        0.35207
H          3.55365        1.72540       -1.39296
H          2.71482        0.76527       -2.61131
H          4.32563       -1.13695       -2.23933
H          5.15166       -0.19988       -0.98789
H          5.78316        1.54340       -2.69648
H          4.96225        0.59387       -3.96069
H          8.59923       -1.65173       -3.27316
H          9.66356       -0.24568       -3.33357
H          8.59924       -3.20087       -4.98304
H          9.31948       -4.00749       -7.16972
H          9.87210        1.46065       -4.89435
H         11.67552        2.20239       -8.55911
H         11.35023       -0.14316       -9.30959
H         11.94198        3.62142       -6.74896
H         11.05014        3.35731       -5.23434
H          8.91258        4.03737       -6.29353
H          9.64427        3.96194       -7.91579
H          8.38885        7.20871       -9.32056
H         10.17117        7.01615       -9.29001
H          8.62092        9.34361       -7.98055
H          9.52464        9.44214       -9.50872
H         10.39859        9.14264       -7.99084
H         11.51608        7.89455       -5.36389
H         11.24290        7.19216       -3.75283
H          9.14108        8.77285       -5.38093
H         10.01053        9.35657       -3.94257
H          8.84848        8.01754       -3.79409
H         11.69413       -2.43914       -9.30909
H         10.11531       -2.05573       -9.98596
H          9.30861       -4.38177       -9.43820
H         10.90633       -4.76558       -8.75720
H         12.30986       -5.41923      -12.65282
H         10.71938       -5.06795      -13.29441
H         10.12703       -7.53707      -13.17536
H         11.72956       -7.88709      -12.55257
H         11.14570       -6.65446      -15.33069
H         11.63119       -8.33079      -15.02107
H         12.76726       -7.00823      -14.70172
