54

C          1.06540        0.09763       -0.11770
C          2.55721        0.26833        0.17747
C          3.01931       -0.49845        1.42257
C          4.51003       -0.31104        1.72408
C          4.96966       -1.09856        2.93920
O          6.36844       -0.86669        3.13377
C          6.90916       -1.57745        4.22417
C          8.41405       -1.32410        4.21741
C          9.16524       -1.94136        5.40444
C         10.68435       -1.75126        5.35497
C         11.26743       -2.49645        4.15801
N         10.61072       -3.80533        3.97662
C          9.55094       -4.24920        4.69804
N          9.12793       -5.51329        4.59090
N          8.91011       -3.40090        5.54491
C          8.11440       -3.85246        6.71655
C          6.74445       -4.44019        6.32532
O          6.58681       -5.34383        5.51216
O          5.77293       -3.86435        7.02477
C          4.39609       -4.36024        6.82046
C          3.69907       -3.56584        5.73458
C          8.85903       -4.80446        7.66544
I         11.27492       -4.86276        2.32737
H          0.77015        0.65244       -1.01834
H          0.44749        0.46469        0.71517
H          0.80723       -0.95946       -0.28085
H          2.78978        1.33897        0.30473
H          3.14747       -0.06725       -0.69201
H          2.79986       -1.57250        1.28772
H          2.42138       -0.17280        2.29189
H          4.73053        0.75548        1.89052
H          5.11200       -0.62389        0.85559
H          4.79274       -2.18355        2.79264
H          4.41009       -0.79067        3.84523
H          6.69611       -2.66152        4.11890
H          6.45408       -1.24646        5.18272
H          8.58736       -0.23733        4.23549
H          8.81536       -1.68806        3.25889
H          8.78885       -1.48921        6.33185
H         11.12057       -2.12553        6.29168
H         10.94874       -0.68884        5.26818
H         12.34541       -2.66485        4.29151
H         11.13401       -1.91990        3.23021
H          9.65612       -6.17182        4.02878
H          8.14529       -5.71394        4.85835
H          7.89777       -2.92957        7.26595
H          3.93066       -4.21822        7.80256
H          4.45078       -5.43020        6.58573
H          3.70646       -2.49168        5.96047
H          2.65188       -3.89138        5.66932
H          4.16403       -3.73029        4.75453
H          9.06494       -5.77884        7.20933
H          8.24630       -4.96924        8.56107
H          9.80706       -4.35029        7.97976
