79

N          2.62809       -3.40578        3.76439
C          2.41824       -1.94710        3.79616
C          3.71407       -1.20390        4.14409
C          4.94823       -1.63376        3.33529
C          4.71681       -1.57288        1.82381
N          5.95555       -1.80189        1.05592
C          6.73531       -0.75877        0.58227
N          7.87276       -1.15779        0.09550
N          7.83134       -2.51312        0.26191
C          6.67635       -2.95154        0.82701
N          6.39471       -4.23628        1.09740
C          7.46686       -5.23044        0.83630
C          8.55465       -5.27880        1.91694
C          8.12242       -5.85189        3.28351
C          7.78282       -7.35098        3.18197
C          7.22433       -7.99161        4.46886
C          6.72844       -9.38995        4.22557
C          7.24903      -10.54740        4.67472
C          8.45910      -10.65567        5.56461
C          6.62667      -11.86729        4.30007
C          9.22502       -5.58192        4.31688
C          5.00689       -4.72650        1.28089
C          4.15879       -4.68466        0.00084
C          4.66441       -5.61234       -1.10725
S          3.77170       -5.43030       -2.67413
C          4.66674       -4.08771       -3.46626
S          5.93107       -3.26895       -2.72458
N          4.21755       -3.80694       -4.70691
C          4.79548       -2.69913       -5.49072
C          5.96003       -3.14644       -6.37372
C          3.15461       -4.57231       -5.38254
C          1.76135       -3.96726       -5.20335
H          1.75516       -3.87281        3.51447
H          2.85897       -3.74278        4.70223
H          1.63522       -1.62669        4.50656
H          2.06548       -1.64358        2.79725
H          3.94431       -1.34826        5.21159
H          3.53827       -0.12396        4.01735
H          5.23687       -2.65825        3.61287
H          5.79525       -0.98076        3.59580
H          4.36725       -0.57572        1.52063
H          3.95567       -2.29178        1.50189
H          6.40965        0.27552        0.62379
H          8.57392       -3.08376       -0.12481
H          7.90156       -5.04367       -0.16144
H          6.96758       -6.20205        0.75306
H          8.97252       -4.26933        2.06654
H          9.38183       -5.89023        1.51752
H          7.21249       -5.31324        3.61075
H          8.68647       -7.90395        2.87168
H          7.04268       -7.51748        2.37983
H          6.38963       -7.36751        4.83886
H          7.98927       -7.97875        5.25715
H          5.84452       -9.45853        3.57906
H          8.90882       -9.68809        5.81568
H          9.23347      -11.27614        5.08528
H          8.20001      -11.16382        6.50735
H          5.74600      -11.73916        3.65785
H          6.32058      -12.42805        5.19820
H          7.35099      -12.50696        3.76999
H         10.15159       -6.11169        4.04648
H          8.93254       -5.91423        5.32074
H          9.45966       -4.50950        4.37906
H          4.50545       -4.17148        2.08798
H          5.10728       -5.75581        1.64967
H          4.13116       -3.65764       -0.39342
H          3.12784       -4.95435        0.27699
H          4.53953       -6.67244       -0.84020
H          5.71964       -5.41560       -1.34402
H          5.12515       -1.92870       -4.78256
H          3.97910       -2.28438       -6.09974
H          6.78538       -3.52704       -5.75919
H          6.32971       -2.29246       -6.95708
H          5.65675       -3.92966       -7.08189
H          3.18204       -5.60984       -5.01960
H          3.42285       -4.60955       -6.44860
H          1.46710       -3.95479       -4.14601
H          1.02563       -4.56527       -5.75735
H          1.71790       -2.93960       -5.58890
