80

C          3.66606        2.13637        4.41834
O          3.81718        1.80516        3.02984
C          4.68067        0.81302        2.68779
C          5.28581       -0.08164        3.57925
C          6.11955       -1.09207        3.09485
C          6.37636       -1.21201        1.72747
C          5.79666       -0.30905        0.83650
C          4.94334        0.69079        1.30571
N          4.36477        1.64880        0.42130
C          3.93341        1.39082       -0.82969
N          3.31761        0.22833       -1.15828
C          2.04162       -0.28136       -0.54843
C          0.99340        0.86435       -0.49848
C          0.55834        1.56059       -1.81469
C         -0.71804        0.94576       -2.40703
C          0.37614        3.06836       -1.58272
C          1.65267       -1.47575       -1.45016
O          1.83004       -1.12848       -2.83089
C          2.21963       -0.84578        0.86728
N          4.15326        2.29007       -1.80943
C          5.04969        3.44422       -1.73391
C          4.30705        4.74368       -1.38437
C          5.26524        5.81041       -0.84379
S          4.41800        7.12204        0.07729
C          4.07073        6.28729        1.61277
S          4.56277        4.73619        2.00842
N          3.35045        7.06105        2.47012
C          2.78609        6.50949        3.68302
C          3.35171        6.83014        4.91845
C          2.76911        6.33849        6.08915
C          1.62422        5.54025        6.02243
C          1.05895        5.23109        4.78039
C          1.63805        5.71394        3.60648
C          3.09756        8.46466        2.21983
C          1.82217        8.87843        1.82041
C          1.57553       10.23577        1.61203
C          2.59487       11.17256        1.80627
C          3.86466       10.75318        2.21238
C          4.12081        9.39779        2.42417
H          3.02557        3.02327        4.43693
H          4.63821        2.38052        4.87108
H          3.18640        1.31439        4.97174
H          5.09679        0.00061        4.64811
H          6.57747       -1.78690        3.79890
H          7.04195       -1.98985        1.35554
H          6.00769       -0.37584       -0.23095
H          4.41768        2.63554        0.72199
H          3.30884        0.03086       -2.16270
H          1.41244        1.61838        0.18852
H          0.09999        0.47399        0.01536
H          1.35457        1.43083       -2.56853
H         -1.56152        1.05310       -1.70815
H         -0.59407       -0.11990       -2.63488
H         -0.99850        1.44836       -3.34303
H         -0.40852        3.26039       -0.83473
H          0.07870        3.58187       -2.50785
H          1.30161        3.53789       -1.21694
H          0.60292       -1.73854       -1.23810
H          2.28973       -2.33769       -1.19156
H          1.79685       -1.93737       -3.36317
H          2.32838       -0.04746        1.60973
H          3.08865       -1.51108        0.93108
H          1.32232       -1.42097        1.13634
H          3.53891        2.22254       -2.61692
H          5.57681        3.52484       -2.69567
H          5.80458        3.22281       -0.96637
H          3.56894        4.51461       -0.60315
H          3.75261        5.12317       -2.25547
H          5.80138        6.34045       -1.64389
H          6.00265        5.36421       -0.15992
H          4.24201        7.45761        4.95983
H          3.20952        6.58624        7.05531
H          1.16432        5.16667        6.93790
H          0.15766        4.61951        4.72617
H          1.21207        5.47660        2.63124
H          1.03459        8.13913        1.67418
H          0.58429       10.56263        1.29713
H          2.39763       12.23260        1.64445
H          4.65850       11.48338        2.37108
H          5.10669        9.05650        2.74113
