46

C          2.64280        1.36847        1.59733
C          2.58633        0.20594        0.62638
O          3.02101       -1.05439        1.26450
C          4.32615       -1.29949        1.28021
O          5.21125       -0.58855        0.83561
C          4.63138       -2.64675        1.94603
N          6.07711       -2.79951        1.90981
C          6.73012       -3.97283        1.84286
N          7.99733       -4.00639        1.39826
C          8.90213       -5.15210        1.65333
C         10.22695       -4.65379        2.23969
C         10.90069       -3.66136        1.33290
C         11.01171       -2.35517        1.59858
O          8.29189       -6.02411        2.57446
C          6.95146       -6.33511        2.17267
N          6.13302       -5.11673        2.21468
C          6.37577       -7.41094        3.08203
C          6.51883       -7.22968        4.61568
C          6.15909       -5.85290        5.17750
N          4.86252       -5.36703        4.64825
O          5.63329       -8.14828        5.26970
H          2.23083        2.26097        1.10636
H          3.67388        1.59597        1.89578
H          2.04139        1.16857        2.49364
H          3.21808        0.37090       -0.25537
H          1.56157       -0.01912        0.31038
H          4.12334       -3.45393        1.39601
H          4.23431       -2.64147        2.97282
H          6.52704       -1.95773        1.53161
H          8.44738       -3.14962        1.07802
H          9.06943       -5.67301        0.69061
H         10.86246       -5.53921        2.39352
H         10.01852       -4.21031        3.22468
H         11.30942       -4.05404        0.39625
H         10.64323       -1.92705        2.53445
H         11.50910       -1.67326        0.90922
H          6.97116       -6.70057        1.12938
H          5.42549       -5.08616        3.01381
H          6.85197       -8.36286        2.80682
H          5.30807       -7.51637        2.83760
H          7.56413       -7.42749        4.90771
H          6.94088       -5.13063        4.90124
H          6.16023       -5.94448        6.27477
H          4.14491       -6.07798        4.81487
H          4.56382       -4.54175        5.17084
H          5.90298       -9.05953        5.07424
