66

C          4.78618        5.24227       -1.07292
C          5.08741        3.79429       -0.67887
C          5.51357        2.92903       -1.86984
C          5.77989        1.46520       -1.50294
C          6.23295        0.62913       -2.70800
C          6.43965       -0.82803       -2.33248
O          6.83409       -1.62946       -3.50957
C          8.13224       -1.73692       -3.75660
O          9.04943       -1.26407       -3.10591
C          8.38715       -2.59849       -5.00027
N          9.83234       -2.67957       -5.14122
C         10.51920       -2.88411       -6.27487
N         11.70401       -2.27759       -6.46251
C         12.72345       -2.79997       -7.38647
O         12.12833       -3.58496       -8.40392
C         10.73915       -3.27018       -8.57234
N         10.03489       -3.60580       -7.31670
C          9.40637       -4.91098       -7.07661
C         10.39284       -6.04574       -6.60570
N         11.23202       -5.49789       -5.52442
N          9.51340       -7.17402       -6.31546
N         11.33318       -6.52780       -7.59845
C         10.21322       -3.96660       -9.82248
C          8.72943       -3.63311       -9.99041
O          8.21037       -2.60662       -9.59304
O          8.10390       -4.61876      -10.65873
C          6.67660       -4.42573      -10.93824
C          5.82846       -4.98058       -9.80850
C         10.98988       -3.49396      -11.06874
H          4.48972        5.84214       -0.20216
H          3.96720        5.29400       -1.80557
H          5.66515        5.72537       -1.52491
H          4.19768        3.34750       -0.20413
H          5.88086        3.77516        0.08711
H          6.42056        3.36160       -2.32757
H          4.73213        2.97108       -2.64862
H          4.86547        1.02531       -1.06899
H          6.54818        1.41714       -0.71237
H          7.17433        1.03972       -3.10708
H          5.48349        0.69167       -3.51293
H          5.50907       -1.30441       -2.00096
H          7.21365       -0.95115       -1.56376
H          7.91473       -2.14824       -5.88614
H          7.91727       -3.58179       -4.83548
H         10.30429       -2.21790       -4.35419
H         11.96589       -1.50111       -5.86295
H         13.42761       -3.45745       -6.85322
H         13.25885       -1.93098       -7.80604
H         10.61299       -2.18293       -8.70157
H          8.90087       -5.24184       -7.98825
H          8.61462       -4.78613       -6.32499
H         10.69886       -5.40093       -4.65903
H         11.98704       -6.16345       -5.34683
H          8.90397       -6.99419       -5.51782
H         10.07419       -8.00206       -6.10826
H         11.92556       -5.78024       -7.95969
H         10.85267       -6.99681       -8.36446
H         10.32358       -5.05563       -9.73341
H          6.51853       -4.97218      -11.87543
H          6.49804       -3.35513      -11.09914
H          6.05636       -6.03922       -9.62613
H          4.76613       -4.90440      -10.07806
H          5.98125       -4.41376       -8.88061
H         10.88322       -2.40961      -11.21059
H         10.60203       -3.99790      -11.96152
H         12.05493       -3.73245      -10.97063
