51

C          5.31832        3.87455        3.46025
C          4.35326        3.49705        2.33179
C          4.65008        2.14348        1.70605
O          4.47007        1.13189        2.71705
C          5.00418       -0.13587        2.41171
C          6.51343       -0.17637        2.69399
N          7.07661       -1.53717        2.55013
C          8.10589       -1.69530        3.40454
N          8.94547       -2.73061        3.40831
C          8.78450       -3.93171        2.57944
C          9.99975       -4.86465        2.68263
C         10.38868       -5.37433        4.07419
C          9.27443       -6.06543        4.92738
Br         8.40735       -7.53948        3.98357
F          9.77040       -6.50191        6.09336
F          8.32193       -5.12538        5.22451
Br        11.91804       -6.56904        3.90861
F         10.79629       -4.27580        4.85228
N          8.18345       -0.64587        4.24578
C          6.95638        0.19086        4.14166
C          5.95944       -0.11845        5.26731
C          6.49282        0.16249        6.68252
C          6.84825        1.62793        6.96992
C          7.25398        1.86299        8.42712
H          5.09386        4.87453        3.85274
H          6.36183        3.88719        3.10784
H          5.24935        3.16738        4.29801
H          4.39350        4.24919        1.52863
H          3.31668        3.49350        2.70257
H          5.68766        2.12648        1.32073
H          3.97119        1.93373        0.86015
H          4.81983       -0.41833        1.35657
H          4.48288       -0.86868        3.04502
H          7.03685        0.49507        1.99198
H          7.01989       -2.05224        1.67822
H          9.61171       -2.79690        4.17501
H          8.70740       -3.63371        1.52188
H          7.85692       -4.45770        2.85288
H         10.89384       -4.36178        2.28752
H          9.80967       -5.73241        2.03954
H          8.67449       -0.72485        5.13179
H          7.24596        1.24816        4.17082
H          5.64373       -1.17238        5.19827
H          5.06532        0.49665        5.08754
H          7.36419       -0.48170        6.90725
H          5.72047       -0.16422        7.39603
H          5.98105        2.26168        6.71997
H          7.66584        1.96515        6.30959
H          6.44266        1.58713        9.11583
H          7.49894        2.91761        8.60709
H          8.13706        1.26662        8.70082
