38

Br         5.41161        0.00766        1.37614
C          4.07235        0.10189        0.05598
C          3.05253        0.96872        0.08854
C          2.78786        2.02864        1.10673
N          1.44967        1.80788        1.78584
C          1.43980        0.55558        2.64812
C          0.36803       -0.40701        2.12584
C          0.10485       -1.53334        3.14903
F         -0.22524       -1.05085        4.36464
F         -0.91271       -2.30791        2.71062
F          1.20877       -2.30476        3.27958
O         -0.78967        0.37679        1.88941
C          0.93569        3.04140        2.51545
C          0.42579        4.10076        1.53985
C         -0.31572        5.24722        2.25062
C          0.60688        6.21991        2.99529
S         -0.39754        7.43574        3.88252
O         -1.11418        8.24919        2.92429
O         -1.06980        6.73773        4.94855
O          0.76196        8.34470        4.55797
Br         1.76250        0.91979       -1.32486
H          4.21155       -0.61286       -0.75317
H          2.74768        3.01798        0.63289
H          3.56199        2.03027        1.88507
H          0.75641        1.63644        1.03040
H          1.21945        0.86451        3.67655
H          2.43024        0.08972        2.61665
H          0.71398       -0.90606        1.20217
H         -1.49343       -0.18188        1.51744
H          1.74998        3.39071        3.16553
H          0.11117        2.68758        3.14735
H         -0.28171        3.61784        0.84545
H          1.24274        4.51331        0.92747
H         -1.05745        4.83085        2.95006
H         -0.88284        5.80898        1.49569
H          1.25879        6.77873        2.30958
H          1.22371        5.74029        3.76810
H          0.73202        9.22306        4.13048
