42

N          0.58955       -0.18712       -0.48294
C          2.03155       -0.01425       -0.30183
C          2.75874       -0.23052       -1.63324
C          4.26671        0.00688       -1.52624
C          4.96255       -0.17299       -2.88644
C          6.42576        0.07706       -2.82439
N          7.04451        0.87244       -1.93300
N          8.34298        0.82938       -2.16592
N          8.56230        0.02911       -3.17810
N          7.37665       -0.47137       -3.63317
C          7.27236       -1.38839       -4.72968
C          6.43576       -1.16104       -5.74087
C          9.91886       -0.26294       -3.71083
C         10.28751       -1.72678       -3.71938
C         10.63052       -2.29734       -4.95560
C         11.02251       -3.63157       -5.04453
C         11.06201       -4.40684       -3.88386
C         10.72528       -3.84149       -2.65285
C         10.33873       -2.49831       -2.53487
C         10.00724       -1.93547       -1.17476
H          0.07787        0.14681        0.33311
H          0.34818       -1.17266       -0.59512
H          2.47863       -0.67514        0.46970
H          2.20374        1.01978        0.03650
H          2.31461        0.44598       -2.38134
H          2.56563       -1.25755       -1.99059
H          4.71403       -0.68644       -0.79598
H          4.46461        1.02156       -1.15046
H          4.52731        0.53029       -3.61886
H          4.78765       -1.18012       -3.29775
H          7.92060       -2.25917       -4.63819
H          5.82954       -0.25883       -5.81664
H          6.34872       -1.89877       -6.53680
H         10.55832        0.34747       -3.05743
H          9.96006        0.15888       -4.72473
H         10.59962       -1.68035       -5.85658
H         11.29934       -4.05780       -6.00843
H         11.36725       -5.45226       -3.93382
H         10.77745       -4.45176       -1.74957
H         10.35335       -2.61246       -0.38553
H          8.92259       -1.80726       -1.02919
H         10.47396       -0.95591       -0.99716
