78

C          0.36407       -0.96480      -13.83268
C          1.84662       -0.60101      -13.94465
C          2.52942       -0.42641      -12.58355
C          4.01879       -0.08065      -12.67770
C          4.69233        0.09086      -11.31216
C          6.19569        0.37166      -11.39825
C          6.86613        0.54006      -10.03038
C          8.38491        0.71801      -10.11730
C          9.06616        0.89385       -8.75690
C         10.59023        1.02996       -8.86357
C         11.28138        1.19468       -7.49804
C         12.79644        1.52793       -7.44036
C         13.62826        0.50915       -8.22508
N         13.58563        0.81092       -9.71459
C         14.10664        2.19202      -10.05397
C         13.32560        3.24485       -9.27854
C         13.26935        2.99882       -7.74694
C         12.33477        4.04581       -7.06974
C         11.07577        4.51523       -7.81632
C         10.14721        5.34935       -6.92570
C          8.88831        5.82003       -7.65651
C         14.71314        3.21031       -7.18924
C         14.95151        3.01489       -5.68706
C         16.40456        3.31870       -5.30123
C         16.71393        3.08567       -3.81894
C         18.17360        3.37275       -3.45940
H         -0.09816       -1.08465      -14.82192
H         -0.19881       -0.18681      -13.29583
H          0.22491       -1.90884      -13.28509
H          1.95655        0.32875      -14.52833
H          2.37565       -1.38108      -14.51820
H          2.40831       -1.35359      -11.99570
H          2.00613        0.36106      -12.01279
H          4.14485        0.84437      -13.26748
H          4.54058       -0.87248      -13.24407
H          4.52940       -0.81990      -10.70961
H          4.19719        0.90910      -10.76051
H          6.36807        1.27792      -12.00523
H          6.68626       -0.45431      -11.94353
H          6.64049       -0.33993       -9.40315
H          6.42368        1.40550       -9.50730
H          8.61526        1.59030      -10.75502
H          8.81971       -0.15765      -10.63247
H          8.82230        0.04062       -8.10193
H          8.66541        1.78971       -8.25242
H         10.80573        1.88399       -9.52880
H         10.95644        0.11456       -9.37492
H         11.13931        0.25604       -6.93742
H         10.74114        1.95523       -6.91813
H         13.07477        1.35002       -6.39004
H         13.24621       -0.51343       -8.10130
H         14.68828        0.52117       -7.94220
H         12.59999        0.73678      -10.01796
H         14.11563        0.09854      -10.23104
H         14.00149        2.31695      -11.13957
H         15.17647        2.18502       -9.80905
H         12.31390        3.31594       -9.70039
H         13.80217        4.21654       -9.47959
H         12.94115        4.94060       -6.85444
H         12.04061        3.65609       -6.08147
H         10.49767        3.66729       -8.21472
H         11.36136        5.12216       -8.69118
H         10.69938        6.21858       -6.53272
H          9.86145        4.75046       -6.04454
H          9.13818        6.44656       -8.52512
H          8.24124        6.41322       -6.99757
H          8.29541        4.96784       -8.02181
H         15.00186        4.24051       -7.45668
H         15.43680        2.56879       -7.72128
H         14.72052        1.97849       -5.38580
H         14.27573        3.65910       -5.10249
H         16.63929        4.36471       -5.56439
H         17.08125        2.69655       -5.91464
H         16.46700        2.04298       -3.55616
H         16.04990        3.71722       -3.20555
H         18.86043        2.72962       -4.02940
H         18.36463        3.19751       -2.39260
H         18.44143        4.41710       -3.67671
