63

C          8.91666        2.54533       -1.63671
C          7.58623        1.85574       -1.32507
C          6.72246        1.63291       -2.57148
C          5.39567        0.94646       -2.22784
N          4.53129        0.73266       -3.40184
C          3.64817        1.67666       -3.78676
S          3.47537        3.15840       -3.02134
S          2.68726        1.17663       -5.23404
C          1.62397        2.61582       -5.53395
C          0.18273        2.47940       -5.02556
C          0.10050        2.14622       -3.52832
N         -1.24754        2.35592       -2.96680
C         -1.89043        3.53741       -2.88187
N         -1.27481        4.69849       -2.66521
C          0.04789        4.91719       -2.05664
C          0.07206        6.26610       -1.34760
N         -3.24833        3.52378       -3.01012
C         -4.17068        4.52117       -2.47988
C         -4.24368        5.80087       -3.32273
O         -3.24896        6.40266       -3.70283
O         -5.50061        6.16991       -3.55198
C         -5.68784        7.41436       -4.29211
C          4.70355       -0.55103       -4.10177
C          3.80465       -1.67189       -3.56150
C          3.96821       -2.97367       -4.35370
C          3.04196       -4.09007       -3.86515
H          9.51058        2.69673       -0.72570
H          8.75600        3.53104       -2.09724
H          9.52343        1.94920       -2.33393
H          7.01815        2.45987       -0.59792
H          7.77846        0.88741       -0.83229
H          7.27626        1.02631       -3.30767
H          6.50476        2.59859       -3.05364
H          4.83214        1.55135       -1.50500
H          5.57675       -0.04331       -1.78135
H          1.63273        2.76386       -6.62179
H          2.13680        3.46458       -5.05155
H         -0.36708        1.72279       -5.60703
H         -0.31678        3.44549       -5.21216
H          0.84670        2.72444       -2.96981
H          0.34473        1.09223       -3.35015
H         -1.83433        1.53377       -2.86538
H         -1.81317        5.52626       -2.97464
H          0.83277        4.87540       -2.82826
H          0.24214        4.10088       -1.34749
H         -0.13222        7.08984       -2.04585
H          1.06775        6.43405       -0.91913
H         -0.66236        6.30712       -0.53209
H         -3.64759        2.77896       -3.57060
H         -3.85254        4.81400       -1.46630
H         -5.16289        4.06399       -2.39826
H         -6.76952        7.51017       -4.41151
H         -5.18717        7.34854       -5.26481
H         -5.27937        8.25329       -3.71694
H          5.76333       -0.82884       -4.00373
H          4.52568       -0.39717       -5.17653
H          2.75453       -1.34068       -3.60590
H          4.03404       -1.84735       -2.49756
H          5.01677       -3.31014       -4.29506
H          3.77320       -2.77365       -5.42077
H          3.23476       -4.33976       -2.81139
H          3.17815       -5.00718       -4.45316
H          1.98486       -3.79622       -3.94892
