77

C          0.87118        0.44663        0.40073
C          2.35788        0.46185        0.76463
C          2.99561       -0.93232        0.78596
C          4.47244       -0.91968        1.19398
C          5.13859       -2.29949        1.15103
C          6.58857       -2.27925        1.64948
C          7.30005       -3.63252        1.50199
C          8.69760       -3.57802        2.08349
O          9.37540       -4.85903        1.77644
C         10.54860       -5.06894        2.34737
O         11.11066       -4.29753        3.11796
C         11.10089       -6.43377        1.91415
C         12.50563       -6.67524        2.36380
N         13.15289       -5.89654        3.23378
C         14.41199       -6.39085        3.53415
C         14.53643       -7.53751        2.80340
N         13.35364       -7.70598        2.07882
C         13.12864       -8.80870        1.14038
C         13.34185       -8.45895       -0.39317
C         14.70364       -7.81712       -0.88467
C         16.08618       -8.58048       -0.77610
C         16.32322       -9.99069       -1.45427
C         16.14251      -10.21114       -3.01018
C         16.98746       -9.38932       -4.06609
C         18.55876       -9.46407       -4.01030
F         18.97804      -10.73831       -3.96187
F         19.04653       -8.88178       -5.11646
F         19.03142       -8.80408       -2.93559
F         16.60703       -9.87097       -5.27456
F         16.62917       -8.08101       -3.98800
F         16.39539      -11.52681       -3.21143
F         14.83560       -9.97625       -3.30857
F         17.59120      -10.34069       -1.12690
F         15.47344      -10.86615       -0.85006
F         17.01209       -7.71366       -1.24020
F         16.32649       -8.77857        0.55610
F         14.50422       -7.47662       -2.17559
F         14.86668       -6.66906       -0.16028
F         13.07460       -9.57861       -1.08819
F         12.38996       -7.52455       -0.70068
F         13.93624       -9.82236        1.49101
F         11.84116       -9.21091        1.26384
C         15.37489       -5.69610        4.44671
C         16.07949       -4.55526        3.68457
O         16.66596       -5.11524        2.51250
C         14.69029       -5.21047        5.74690
C         15.66973       -4.76504        6.83633
H          0.44976        1.46091        0.39171
H          0.28906       -0.14817        1.12011
H          0.70737        0.01125       -0.59622
H          2.48988        0.93549        1.75232
H          2.90659        1.09841        0.04981
H          2.89302       -1.39442       -0.21170
H          2.43136       -1.58169        1.47827
H          4.56302       -0.50192        2.21224
H          5.02814       -0.22952        0.53509
H          5.11069       -2.68714        0.11810
H          4.55459       -3.01181        1.75893
H          6.60225       -1.96469        2.70749
H          7.15413       -1.50970        1.09608
H          7.35816       -3.90885        0.43743
H          6.72271       -4.42260        2.00785
H          8.70065       -3.44940        3.17446
H          9.30667       -2.77890        1.63668
H         11.01055       -6.51698        0.82379
H         10.43553       -7.21030        2.32617
H         12.65597       -5.04093        3.55446
H         15.36190       -8.22895        2.71305
H         16.14709       -6.43901        4.70323
H         16.84190       -4.10630        4.34010
H         15.34331       -3.76779        3.42930
H         17.28502       -4.47308        2.13309
H         14.06703       -6.03123        6.13402
H         13.99998       -4.38086        5.51391
H         16.36762       -5.57250        7.09902
H         15.12419       -4.48824        7.74735
H         16.26197       -3.89060        6.53624
