65

C          2.75766        2.52859        0.69922
O          2.56308        1.37911       -0.14341
C          3.43943        0.33113       -0.04262
C          4.46938        0.26930        0.90378
C          5.29580       -0.85454        0.96634
C          5.10816       -1.92616        0.09224
C          4.08336       -1.85969       -0.84877
C          3.23631       -0.74484       -0.94238
C          2.19729       -0.74465       -2.02512
C          2.18884        0.46485       -3.01608
C          2.84807        0.19736       -4.36041
C          4.38150        0.13229       -4.29583
C          4.97061       -0.06208       -5.69636
S          6.78337       -0.04484       -5.63651
C          7.21195        0.85147       -7.11131
S          6.15450        1.51692       -8.17674
N          8.60174        0.93914       -7.26138
C          9.60141        0.33585       -6.48382
N         10.79689        0.63944       -6.90716
C         10.60469        1.47544       -8.00434
C          9.27621        1.67156       -8.24538
O          0.78225        0.73364       -3.24901
C          0.13725        0.54884       -2.04032
N          0.70090       -0.77640       -1.53189
C          0.41247       -1.08491       -0.08485
C          0.63059       -2.55508        0.24733
C          0.34029       -2.84178        1.73399
C          0.67153       -4.27038        2.10134
C         -0.27055       -5.29376        1.92660
C          0.05433       -6.61788        2.22897
C          1.32649       -6.93473        2.71222
C          2.27212       -5.92187        2.89275
C          1.94532       -4.59918        2.58687
H          3.74549        2.98028        0.52940
H          2.63913        2.26807        1.76118
H          1.97749        3.23892        0.40757
H          4.63101        1.09258        1.59680
H          6.09372       -0.88566        1.70857
H          5.75396       -2.80176        0.13933
H          3.93397       -2.68982       -1.54304
H          2.30699       -1.67411       -2.59862
H          2.64086        1.34002       -2.52512
H          2.54576        1.01481       -5.03289
H          2.43428       -0.73023       -4.79016
H          4.70853       -0.68047       -3.62772
H          4.77425        1.06583       -3.86300
H          4.68615        0.74958       -6.38717
H          4.64794       -1.01273       -6.14460
H          9.36946       -0.31761       -5.64843
H         11.44858        1.88202       -8.55274
H          8.72998        2.23955       -8.98686
H         -0.94465        0.46378       -2.20015
H          0.38220        1.30058       -1.27287
H          0.25102       -1.51164       -2.09166
H         -0.63558       -0.79281        0.08201
H          1.04931       -0.42660        0.51590
H          1.66869       -2.84238        0.02955
H         -0.02093       -3.18772       -0.37977
H         -0.71836       -2.62929        1.95226
H          0.93785       -2.15515        2.35448
H         -1.27253       -5.05252        1.56307
H         -0.69092       -7.40278        2.09607
H          1.57720       -7.96734        2.95636
H          3.26198       -6.16145        3.28280
H          2.68489       -3.80884        2.73881
