70

C          1.48169       -0.18455        0.88189
C          2.96194        0.19604        0.96296
C          3.34506        1.35031        0.03008
C          4.82852        1.72750        0.09073
C          5.21046        2.87024       -0.85586
C          6.70270        3.21666       -0.83325
C          7.08566        4.34058       -1.80236
C          8.59105        4.62246       -1.84731
C          8.97524        5.73222       -2.83354
C         10.49279        5.93284       -2.94149
C         10.86344        7.02616       -3.92681
O         12.31067        7.07826       -4.02033
C         12.77728        8.05383       -4.88951
N         14.28704        8.00209       -4.78390
C         14.84988        6.60417       -5.03501
C         14.65213        6.17927       -6.49682
O         14.23186        6.90776       -7.37735
O         15.00738        4.90089       -6.63226
C         14.86783        4.30437       -7.97480
C         13.47830        3.72969       -8.16883
C         16.29911        6.49619       -4.55621
C         14.95049        9.12375       -5.56596
C         14.82318       10.52399       -4.95316
C         15.64199       10.83626       -3.68794
S         14.84584       10.23807       -2.18528
O         13.57822       10.90457       -2.00276
O         14.90760        8.78040       -2.20563
O         15.87863       10.69167       -1.04573
H          1.24074       -1.01450        1.56021
H          1.20437       -0.49704       -0.13611
H          0.83521        0.66361        1.15292
H          3.58236       -0.68416        0.72268
H          3.21667        0.46880        2.00117
H          2.73151        2.23547        0.27514
H          3.08058        1.08049       -1.00789
H          5.43910        0.83869       -0.14834
H          5.09427        2.00487        1.12605
H          4.62093        3.76870       -0.60177
H          4.91785        2.60044       -1.88605
H          7.28718        2.31216       -1.07842
H          7.00035        3.49824        0.19203
H          6.54525        5.26321       -1.52755
H          6.73732        4.07785       -2.81679
H          9.12420        3.69498       -2.12054
H          8.94816        4.89027       -0.83785
H          8.49404        6.67713       -2.52819
H          8.56635        5.48904       -3.82958
H         10.96889        4.99246       -3.26368
H         10.91530        6.18218       -1.95518
H         10.49118        8.01229       -3.59396
H         10.44810        6.81994       -4.93021
H         12.47157        9.07014       -4.58021
H         12.50570        7.88124       -5.94496
H         14.48975        8.17447       -3.76570
H         14.21611        5.95527       -4.41531
H         15.64231        3.52916       -7.98654
H         15.10491        5.07782       -8.71571
H         13.24207        2.99138       -7.39176
H         13.43350        3.22270       -9.14249
H         12.71355        4.51669       -8.16485
H         17.00517        7.03301       -5.20294
H         16.58657        5.43903       -4.56460
H         16.39888        6.86448       -3.52668
H         14.51502        9.10360       -6.57004
H         16.00800        8.85094       -5.66176
H         13.77332       10.81307       -4.79857
H         15.19188       11.20528       -5.73443
H         15.73706       11.92211       -3.55336
H         16.64921       10.39560       -3.70328
H         15.48877       11.43718       -0.54563
