49

N          2.55485       -3.61442       -0.85419
C          2.03795       -2.25606       -0.55324
C          2.84349       -1.60586        0.58226
C          4.28744       -1.25501        0.19785
N          4.97258       -2.44800       -0.31632
C          6.25143       -2.79487       -0.11757
N          6.55490       -4.10450       -0.03912
C          7.88404       -4.68582       -0.28378
C          8.98115       -3.61472       -0.21483
C          8.49958       -2.44775        0.66046
N          7.25182       -1.88984        0.05154
C          7.27037       -0.65641       -0.75970
C          7.90932       -0.77975       -2.15946
C          7.33947       -1.86517       -3.08775
C          5.87789       -1.63039       -3.49412
S          5.17266       -3.17757       -4.11735
O          5.70951       -3.48741       -5.41763
O          5.17169       -4.16027       -3.05185
Cl         3.17746       -2.58780       -4.38181
C          9.55249       -1.37593        0.95579
C         10.68869       -1.89556        1.84401
H          2.27910       -3.90948       -1.79171
H          2.16204       -4.29703       -0.20323
H          0.96768       -2.25936       -0.29063
H          2.13446       -1.65486       -1.47052
H          2.84095       -2.26772        1.46363
H          2.34313       -0.67610        0.88858
H          4.83829       -0.85389        1.06136
H          4.26065       -0.46129       -0.57218
H          4.28758       -3.17801       -0.64280
H          5.76796       -4.74573       -0.02109
H          7.88366       -5.19616       -1.25934
H          8.04474       -5.45004        0.48935
H          9.23594       -3.24001       -1.21538
H          9.89302       -4.06426        0.19757
H          8.17991       -2.86167        1.63316
H          7.80325        0.11475       -0.19195
H          6.24045       -0.29701       -0.84982
H          8.98977       -0.96015       -2.05981
H          7.81745        0.21081       -2.63382
H          7.42319       -2.84841       -2.60314
H          7.95846       -1.92054       -3.99334
H          5.76246       -0.89264       -4.29887
H          5.23292       -1.35960       -2.64956
H          9.05938       -0.53693        1.47088
H          9.97451       -0.97438        0.02077
H         10.30305       -2.32278        2.78083
H         11.36499       -1.07428        2.11001
H         11.29335       -2.66413        1.34454
