56

C          0.93985       -0.81236       -0.51999
C          2.46101       -0.64845       -0.47701
C          2.98487        0.35861       -1.50723
C          4.50519        0.54860       -1.45742
C          5.00855        1.55024       -2.50632
C          6.51564        1.77340       -2.40227
N          7.06742        2.63802       -3.49777
C          6.59470        4.06002       -3.45794
C          7.10081        4.82414       -4.68919
N          8.53378        4.74322       -4.91365
C          9.03960        3.37603       -4.88585
C          8.74581        2.54278       -3.60628
N          9.45307        2.75647       -2.43458
C          9.68435        4.05657       -1.81681
C          9.75736        1.62366       -1.56083
C         10.51887        3.32223       -5.28132
C         11.12396        1.92202       -5.48337
C         10.51022        1.03565       -6.58659
S          9.15281       -0.03263       -6.03187
O          9.56311       -0.72569       -4.82423
O          7.89493        0.69120       -6.04513
O          9.04093       -1.08933       -7.24267
H          0.59648       -1.54478        0.22230
H          0.60214       -1.15880       -1.50788
H          0.42811        0.13809       -0.30918
H          2.94354       -1.62550       -0.64781
H          2.77066       -0.32961        0.53266
H          2.49130        1.33357       -1.34725
H          2.68983        0.03209       -2.51999
H          5.00551       -0.42313       -1.60827
H          4.79825        0.89277       -0.45049
H          4.46639        2.50002       -2.37812
H          4.76384        1.17713       -3.51620
H          7.04601        0.81295       -2.47293
H          6.78993        2.24443       -1.44809
H          6.77367        2.21690       -4.39363
H          6.96568        4.49488       -2.52013
H          5.49705        4.06614       -3.42660
H          6.80163        5.87677       -4.59943
H          6.58796        4.42870       -5.58483
H          9.06359        5.38999       -4.33306
H          8.47172        2.85342       -5.67456
H          8.82170        1.47773       -3.84737
H          9.53678        4.87044       -2.53032
H         10.72027        4.11246       -1.45101
H          9.01752        4.23075       -0.95264
H          9.68072        0.68520       -2.12322
H          9.09080        1.56646       -0.68239
H         10.78871        1.71793       -1.18955
H         11.12597        3.84024       -4.52181
H         10.61540        3.90634       -6.20879
H         11.15215        1.35619       -4.53998
H         12.17770        2.06269       -5.76279
H         11.26123        0.32635       -6.95988
H         10.12048        1.60209       -7.44446
H          9.54168       -1.89541       -7.00615
