70

C         -0.85276        5.17811        5.36928
C          0.61050        5.37552        5.77313
C          1.56080        5.48587        4.57582
C          3.02755        5.68333        4.97121
C          3.97824        5.77747        3.77371
C          5.44347        5.97868        4.17235
C          6.40210        6.03118        2.97845
C          7.86293        6.24010        3.39015
C          8.83990        6.22251        2.20963
C         10.28892        6.44002        2.65185
C         11.30024        6.32790        1.48353
C         12.69571        6.56539        1.97191
C         13.49662        5.51490        2.41257
C         14.76639        5.76222        2.96025
N         15.26906        6.99083        3.07602
N         14.48746        7.96170        2.63462
C         13.25479        7.86284        2.09430
C         12.58992        9.14677        1.67928
C         13.55320       10.23485        1.14230
C         12.81385       11.51578        0.76086
O         12.36359       12.07994        1.99741
O         14.56494       10.55410        2.11746
C         15.59733        4.57989        3.42385
O         15.20096        3.44523        3.23771
O         16.72161        4.96331        4.01934
C         17.62042        3.89279        4.48301
C         18.61358        3.50813        3.39697
C         19.61573        2.45725        3.89657
C         20.62959        2.05756        2.82177
H         -1.50683        5.10241        6.24868
H         -0.98384        4.25936        4.77832
H         -1.21537        6.01763        4.75750
H          0.93250        4.53762        6.41459
H          0.70307        6.28263        6.39432
H          1.23985        6.32385        3.93187
H          1.46949        4.57756        3.95412
H          3.34515        4.84987        5.62241
H          3.12086        6.59675        5.58488
H          3.66068        6.60692        3.11762
H          3.88898        4.86066        3.16480
H          5.75268        5.16245        4.84870
H          5.53851        6.90891        4.75979
H          6.09454        6.83982        2.29266
H          6.31632        5.09465        2.40036
H          8.15371        5.45535        4.10998
H          7.95741        7.19768        3.93169
H          8.55674        6.99855        1.47769
H          8.75955        5.25817        1.67973
H         10.56131        5.69938        3.42182
H         10.38679        7.42834        3.13237
H         11.03034        7.03884        0.68892
H         11.24082        5.32223        1.04380
H         13.16325        4.47752        2.34701
H         14.87284        8.93292        2.70005
H         12.03264        9.55527        2.54050
H         11.83810        8.92051        0.91124
H         14.08621        9.85084        0.25874
H         11.97268       11.29400        0.08170
H         13.51722       12.18928        0.24565
H         12.10695       13.00446        1.86018
H         14.17682       11.25452        2.68196
H         17.00504        3.04004        4.79866
H         18.11731        4.33646        5.35446
H         19.15077        4.41084        3.06481
H         18.06726        3.11390        2.52534
H         19.06853        1.56370        4.23900
H         20.14761        2.84842        4.77951
H         20.13192        1.61911        1.94461
H         21.33985        1.31401        3.20646
H         21.21085        2.92517        2.47726
