72

C          8.12617       -1.71970       -6.01903
C          8.21598       -1.29165       -4.55212
C          8.33309       -2.47513       -3.58543
C          8.44289       -2.06386       -2.11350
C          8.61286       -3.25706       -1.16772
C          8.71279       -2.86792        0.31110
C          9.03640       -4.06638        1.21284
C          9.11033       -3.70393        2.70643
C          9.61017       -4.81692        3.64125
C         11.10836       -5.13365        3.43328
N         11.62346       -6.29279        4.13515
C         10.85333       -7.50266        3.88035
C          9.36430       -7.29623        4.18808
N          8.80311       -6.10841        3.42896
C          7.31043       -5.96553        3.64311
C          6.88427       -5.50156        5.03870
O          5.53525       -5.88646        5.11737
C          4.88810       -5.51846        6.35264
C          3.47767       -6.08085        6.32587
C          2.67829       -5.76106        7.59411
C          1.26743       -6.36241        7.56917
C          0.45438       -6.05318        8.82733
C         11.43572       -8.67979        4.67171
C         10.87457      -10.04777        4.26473
C         11.52794      -11.19097        5.02639
F         12.86995      -11.22915        4.82599
F         11.32326      -11.07632        6.36758
F         11.02062      -12.38453        4.63719
H          8.03967       -0.85203       -6.68661
H          7.25174       -2.36338       -6.19637
H          9.01920       -2.28495       -6.32505
H          7.32844       -0.69254       -4.28700
H          9.08312       -0.62391       -4.41468
H          9.21603       -3.07952       -3.85979
H          7.46131       -3.14029       -3.71580
H          7.54741       -1.48716       -1.82390
H          9.29865       -1.37805       -1.98831
H          9.52007       -3.81632       -1.45702
H          7.76993       -3.95702       -1.30474
H          7.76980       -2.39912        0.63987
H          9.49685       -2.10272        0.44141
H          9.98899       -4.50446        0.87298
H          8.26273       -4.83852        1.03643
H          8.13503       -3.32584        3.04934
H          9.80812       -2.86180        2.84078
H          9.43874       -4.54688        4.69416
H         11.67655       -4.24343        3.73547
H         11.30344       -5.27449        2.35663
H         11.74412       -6.12362        5.13537
H         10.95657       -7.72419        2.79888
H          9.21787       -7.10028        5.25840
H          8.74386       -8.15607        3.90029
H          8.91214       -6.32528        2.42576
H          6.87619       -6.95824        3.46480
H          6.92935       -5.28516        2.87378
H          7.00529       -4.40630        5.15540
H          7.48586       -5.98622        5.83558
H          4.88221       -4.41615        6.45015
H          5.46555       -5.93130        7.20230
H          3.53942       -7.17233        6.18822
H          2.95568       -5.68104        5.44190
H          2.60626       -4.66727        7.72324
H          3.21810       -6.13795        8.48019
H          1.34370       -7.45475        7.43699
H          0.73160       -5.98768        6.68107
H          0.94731       -6.44294        9.73015
H         -0.54501       -6.50508        8.77549
H          0.32148       -4.96985        8.96276
H         11.27345       -8.51561        5.74986
H         12.52230       -8.66386        4.50879
H         11.03995      -10.24156        3.19459
H          9.79520      -10.13531        4.45660
