121

C          5.17695       -3.54324       -0.25487
C          5.85705       -2.19661       -0.51518
C          5.71162       -1.20754        0.64730
C          6.40435        0.13715        0.40244
C          6.22880        1.13169        1.55435
C          6.95460        2.46432        1.33890
C          6.74124        3.44741        2.49297
C          7.52517        4.75439        2.31576
N          7.33319        5.68392        3.43878
C          6.37086        6.63366        3.46407
S          6.05234        7.62292        4.77592
S          5.46409        6.74846        1.91046
C          4.26830        8.06403        2.25662
C          3.00202        7.54514        2.93749
C          2.06589        8.67771        3.38273
C          0.90813        8.13795        4.20009
C         -0.05701        9.18147        4.79120
N         -0.54436        8.51324        6.06991
C          0.32291        7.18949        6.16487
O          1.42167        7.50988        5.39125
C          0.71210        6.86881        7.59227
C          1.18460        5.41288        7.84871
C          2.24646        4.89501        6.86122
N          1.61910        4.55372        5.57441
O          1.60116        5.30765        9.20654
C         -2.02807        8.28256        6.13377
C         -2.77793        9.58963        6.37443
C         -4.27141        9.44030        6.04663
S         -5.07064       11.02304        5.67492
C         -4.50980       11.29518        3.99287
S         -3.51130       10.25726        3.14424
N         -5.02224       12.44490        3.47505
C         -5.79474       13.37082        4.27741
C         -7.18128       13.44210        4.10426
C         -7.91935       14.35578        4.85777
C         -7.27646       15.19514        5.77283
C         -5.88961       15.12653        5.93297
C         -5.14270       14.21702        5.18280
C         -4.87516       12.78529        2.07634
C         -4.13114       13.91288        1.72189
C         -4.03927       14.27780        0.37698
C         -4.68992       13.52371       -0.60260
C         -5.43790       12.40021       -0.23699
C         -5.53581       12.02858        1.10351
C          8.25014        5.49812        4.57467
C          9.55659        6.28238        4.40434
C         10.56466        5.98684        5.51948
C         11.91353        6.68476        5.31074
C         12.93930        6.37914        6.40700
C         14.30038        7.04482        6.17606
C         15.32927        6.73901        7.27058
C         16.68728        7.40461        7.03154
H          5.30209       -4.22867       -1.10445
H          4.09657       -3.42028       -0.08446
H          5.59647       -4.03738        0.63444
H          5.43960       -1.74318       -1.43032
H          6.92879       -2.35789       -0.72107
H          6.11830       -1.66392        1.56733
H          4.63832       -1.03564        0.84621
H          6.01616        0.58543       -0.52921
H          7.48123       -0.03394        0.22837
H          6.58971        0.67214        2.49144
H          5.15209        1.32434        1.70834
H          6.61181        2.92353        0.39549
H          8.03446        2.27434        1.20954
H          7.04326        2.97294        3.44170
H          5.66977        3.68647        2.58961
H          7.24785        5.25436        1.37635
H          8.60379        4.54804        2.24422
H          4.06081        8.51349        1.27407
H          4.78281        8.80066        2.89229
H          3.30773        6.97739        3.82721
H          2.46908        6.85322        2.26586
H          1.66338        9.22544        2.51528
H          2.62441        9.40263        3.99751
H          0.33935        7.38398        3.62178
H         -0.91902        9.42605        4.15696
H          0.47560       10.10014        5.06275
H         -0.27266        9.09812        6.87001
H         -0.30817        6.41422        5.69463
H         -0.14134        7.04720        8.26492
H          1.51808        7.56324        7.88405
H          0.30810        4.74803        7.77103
H          2.74813        4.03997        7.34673
H          3.01431        5.66556        6.68756
H          1.32238        3.57796        5.56848
H          2.28434        4.66402        4.81064
H          2.49687        5.67461        9.29386
H         -2.21084        7.54209        6.92578
H         -2.31425        7.84138        5.16904
H         -2.36556       10.35901        5.70715
H         -2.64186        9.93266        7.41207
H         -4.84450        9.03151        6.89082
H         -4.41284        8.79330        5.16888
H         -7.67014       12.78572        3.38410
H         -9.00032       14.41303        4.72895
H         -7.85703       15.90896        6.35757
H         -5.38597       15.78773        6.63863
H         -4.06000       14.15426        5.29496
H         -3.63259       14.50079        2.49298
H         -3.45898       15.15718        0.09578
H         -4.61895       13.81365       -1.65127
H         -5.95263       11.81296       -0.99806
H         -6.11462       11.15373        1.39959
H          8.45836        4.41932        4.65078
H          7.72510        5.81294        5.48565
H          9.32118        7.35807        4.37787
H         10.00837        6.03461        3.42870
H         10.72897        4.89650        5.58577
H         10.13847        6.28889        6.49159
H         11.75587        7.77525        5.24860
H         12.32778        6.38344        4.33259
H         13.07821        5.28574        6.47993
H         12.53732        6.69752        7.38493
H         14.16490        8.13828        6.09814
H         14.70275        6.72167        5.19967
H         15.46262        5.64636        7.34624
H         14.92731        7.06181        8.24585
H         17.13038        7.07929        6.07826
H         17.40172        7.16069        7.82966
H         16.59395        8.50031        6.99418
