40

F          4.59242       -1.45758        0.50831
C          4.91638       -0.28184        1.20031
C          5.39320        0.76869        0.20738
C          4.30404        1.05576       -0.83527
N          4.76907        1.99379       -1.87622
C          5.50034        1.76597       -2.99097
C          5.92661        0.43847       -3.50633
C          7.20032        0.52923       -4.38349
C          7.62321       -0.81647       -4.85354
C          7.68573       -1.23729       -6.12293
F          7.35346       -0.47321       -7.15786
F          8.08428       -2.43727       -6.49417
F          7.97997       -1.68709       -3.86917
N          5.75995        2.95149       -3.58211
N          5.20951        3.90227       -2.85699
N          4.61052        3.34220       -1.83051
C          3.86844        4.10574       -0.81464
O          4.51636        3.90896        0.39813
C          3.88679        4.62065        1.50115
C          4.58868        4.21221        2.78364
C          4.01558        4.94178        4.00301
H          5.70914       -0.51873        1.92393
H          4.01442        0.03979        1.74592
H          6.30406        0.40553       -0.29162
H          5.64479        1.69303        0.74578
H          3.40567        1.48880       -0.37759
H          4.00331        0.14093       -1.36190
H          5.09565        0.02270       -4.10306
H          6.08732       -0.25942       -2.67204
H          8.01604        0.98315       -3.79651
H          7.02510        1.18155       -5.24758
H          2.81884        3.74872       -0.81239
H          3.90035        5.14382       -1.19040
H          2.81241        4.36078        1.53113
H          3.97584        5.70611        1.31984
H          5.66354        4.42592        2.68147
H          4.48746        3.12247        2.91283
H          4.13532        6.03051        3.91408
H          4.53385        4.62636        4.91662
H          2.94567        4.72930        4.13835
