57

O          2.00422        2.39496       -0.72187
C          3.10796        1.56836       -0.36315
C          3.22944        0.52006       -1.46012
O          4.35639       -0.30158       -1.14741
C          4.54821       -1.35042       -2.06783
C          5.73224       -2.17807       -1.54193
C          6.13821       -3.29882       -2.46361
C          5.55274       -4.55709       -2.36367
C          4.47977       -4.88180       -1.35515
C          3.04135       -4.95290       -1.82302
C          2.42796       -4.69630       -2.98335
Br         3.23130       -4.11105       -4.60005
Br         1.89712       -5.52212       -0.39686
N          5.96604       -5.58137       -3.21402
C          5.38598       -6.95031       -3.09988
C          6.04254       -7.81130       -2.00632
C          7.31220       -8.59421       -2.37126
C          7.13189      -10.07139       -2.89000
C          6.38019      -10.35710       -4.24730
C          7.00110       -9.83379       -5.59611
F          8.30010      -10.12959       -5.69326
F          6.33765      -10.38359       -6.61878
F          6.85813       -8.47960       -5.69057
F          6.28435      -11.69886       -4.35464
F          5.11559       -9.83535       -4.15518
F          8.35716      -10.63965       -2.96809
F          6.40644      -10.72284       -1.93373
F          8.08683       -7.90868       -3.28168
F          8.06064       -8.72145       -1.23515
C          6.86307       -5.36918       -4.18247
C          7.46479       -4.12303       -4.37240
C          7.10752       -3.04999       -3.49055
C          7.72390       -1.79150       -3.70591
C          8.64147       -1.62592       -4.72647
C          8.99606       -2.69656       -5.58270
C          8.41500       -3.93252       -5.41219
H          1.89030        3.07325       -0.03988
H          2.94811        1.06598        0.60774
H          4.05046        2.14149       -0.30203
H          3.36516        1.01421       -2.44019
H          2.30698       -0.08840       -1.50792
H          4.76588       -0.96265       -3.08387
H          3.63837       -1.97642       -2.15005
H          5.47468       -2.55179       -0.54305
H          6.57998       -1.49942       -1.38508
H          4.51767       -4.13439       -0.55240
H          4.70174       -5.83114       -0.84602
H          1.35211       -4.80653       -3.09456
H          5.46630       -7.40438       -4.09004
H          4.31644       -6.84044       -2.89370
H          5.30167       -8.52697       -1.62625
H          6.33457       -7.18661       -1.15102
H          7.11087       -6.22175       -4.81018
H          7.47635       -0.94212       -3.07235
H          9.10334       -0.64945       -4.87654
H          9.72788       -2.53616       -6.37418
H          8.67297       -4.77041       -6.06113
