48

C          0.77878       -0.14682        0.28471
C          2.29865       -0.31462        0.35189
C          2.88603       -1.00869       -0.88164
C          4.40708       -1.18453       -0.82621
C          4.97369       -1.92463       -2.04193
C          6.49486       -2.10850       -1.99634
C          7.03044       -2.91255       -3.18642
C          8.55143       -3.08752       -3.14634
C          9.04933       -3.96145       -4.33070
C         10.51910       -4.10241       -4.32636
N         11.39463       -3.30510       -4.97147
N         12.61886       -3.70924       -4.67742
N         12.55919       -4.72329       -3.85434
N         11.23080       -5.01201       -3.61858
N         10.61096       -5.97655       -2.73587
O         11.36617       -7.17013       -2.91384
O         10.69615       -5.53458       -1.43448
C         13.76460       -5.45578       -3.39163
C         14.77775       -4.51430       -2.73909
C         14.28284       -3.77478       -1.50747
Br        13.65918       -5.01023       -0.09173
H          0.38783        0.34479        1.18570
H          0.27279       -1.11925        0.19100
H          0.48187        0.46346       -0.58123
H          2.56656       -0.89194        1.25309
H          2.77432        0.67316        0.47438
H          2.61768       -0.43470       -1.78608
H          2.40988       -1.99800       -1.00195
H          4.67813       -1.73354        0.09282
H          4.88850       -0.19465       -0.74029
H          4.70042       -1.38146       -2.96316
H          4.49099       -2.91452       -2.12046
H          6.77488       -2.61705       -1.05739
H          6.98531       -1.12030       -1.96721
H          6.74351       -2.41644       -4.12893
H          6.54925       -3.90557       -3.20234
H          8.85205       -3.55856       -2.19751
H          9.04913       -2.10609       -3.19191
H          8.77753       -3.49256       -5.28664
H          8.58348       -4.95576       -4.28325
H         10.67155       -7.85451       -2.97028
H         11.64680       -5.54302       -1.11280
H         14.18715       -5.94524       -4.27905
H         13.42593       -6.23198       -2.69971
H         15.11883       -3.76467       -3.47056
H         15.65244       -5.13208       -2.48825
H         13.43396       -3.11071       -1.70410
H         15.08487       -3.19896       -1.03682
