94

C         -1.29813        4.45488        7.60634
C          0.19382        4.79209        7.56977
C          1.08997        3.59055        7.88500
C          2.58744        3.90808        7.84204
C          3.47402        2.69907        8.15396
C          4.97506        2.99778        8.09582
C          5.84535        1.77505        8.40090
C          7.35025        2.04848        8.32604
C          8.20342        0.81767        8.64758
C          9.71083        1.07591        8.57088
C         10.55483       -0.14398        8.95314
C         12.06210        0.11880        8.89138
C         12.90326       -1.07127        9.36620
C         14.40930       -0.77345        9.33945
C         15.21400       -1.91123        9.95112
N         16.69715       -1.56157       10.04913
C         17.36713       -1.39726        8.72852
C         17.91386       -0.15565        8.41577
C         18.53480        0.01488        7.17550
C         18.60152       -1.05080        6.27505
C         18.05219       -2.29205        6.61091
C         17.42696       -2.47559        7.84656
C         17.47068       -2.46679       11.00002
O         18.54400       -1.69384       11.40650
C         19.33944       -2.28899       12.47168
C         20.37072       -1.26736       12.91333
C         21.25807       -1.78167       14.05382
C         22.27801       -0.73574       14.51861
C         23.16311       -1.21406       15.67327
C         24.17517       -0.16143       16.13695
C         25.06246       -0.62949       17.29438
C         26.05767        0.43373       17.76879
C         26.92825       -0.01835       18.94533
C         27.90693        1.05823       19.41854
H         -1.91709        5.33418        7.38060
H         -1.59744        4.08267        8.59752
H         -1.54757        3.67455        6.87197
H          0.40799        5.60199        8.28740
H          0.45858        5.19049        6.57577
H          0.86983        2.77712        7.17108
H          0.82885        3.19480        8.88253
H          2.80997        4.71967        8.55695
H          2.84751        4.30360        6.84436
H          3.23953        1.88518        7.44543
H          3.21910        2.30973        9.15544
H          5.21633        3.80640        8.80798
H          5.23109        3.38857        7.09529
H          5.58920        0.96311        7.69781
H          5.59522        1.39342        9.40653
H          7.60989        2.86429        9.02336
H          7.60539        2.41863        7.31754
H          7.93796       -0.00149        7.95668
H          7.94848        0.45506        9.65902
H          9.97035        1.91799        9.23636
H          9.97629        1.40237        7.55024
H         10.30162       -0.99001        8.29117
H         10.28396       -0.46460        9.97440
H         12.30205        0.99860        9.51381
H         12.34963        0.38604        7.86010
H         12.69014       -1.95299        8.73898
H         12.60018       -1.34032       10.39267
H         14.60116        0.15233        9.91100
H         14.73811       -0.58584        8.30626
H         15.14008       -2.83817        9.36844
H         14.88398       -2.11787       10.97863
H         16.75284       -0.63799       10.50819
H         17.86726        0.67167        9.12702
H         18.96618        0.98203        6.91877
H         19.08519       -0.91528        5.30778
H         18.10677       -3.12466        5.90969
H         16.99940       -3.44657        8.10047
H         17.75136       -3.37735       10.44082
H         16.78940       -2.72759       11.83135
H         19.81675       -3.20835       12.08952
H         18.66641       -2.56457       13.30430
H         19.84708       -0.35244       13.23389
H         20.99389       -0.99334       12.04737
H         21.78886       -2.69331       13.73075
H         20.62670       -2.07877       14.90881
H         21.74337        0.18038       14.82469
H         22.91512       -0.44528       13.66527
H         23.69980       -2.12952       15.36868
H         22.52438       -1.50537       16.52549
H         23.63524        0.75300       16.43983
H         24.81248        0.13193       15.28428
H         25.61356       -1.53626       16.98930
H         24.42400       -0.93379       18.14231
H         25.50589        1.34620       18.05655
H         26.70879        0.72767       16.92660
H         27.48661       -0.92471       18.65662
H         26.27615       -0.31847       19.78289
H         28.59451        1.35377       18.61223
H         28.51590        0.70676       20.26256
H         27.37411        1.96315       19.74648
