87

C          0.77675       -0.20361       -0.11293
C          2.30189       -0.21940        0.01961
C          2.85489        0.96514        0.81994
C          4.38067        0.95544        0.95588
C          4.93672        2.12121        1.77994
C          6.46276        2.09990        1.91139
C          7.03043        3.24096        2.76118
C          8.55454        3.18806        2.90456
C          9.13482        4.28732        3.79954
C         10.65478        4.19301        3.96489
C         11.23733        5.22529        4.93435
C         12.75143        5.09537        5.12550
C         13.31258        6.02847        6.20192
C         14.82808        5.91220        6.38581
C         15.36625        6.79653        7.51372
C         16.89497        6.82057        7.58848
C         17.41862        7.79536        8.64964
C         18.91536        8.11308        8.44497
C         19.45405        9.15660        9.34783
N         20.43131        8.94853       10.25323
N         20.67680       10.08701       10.87098
N         19.88339       11.00652       10.37743
N         19.08449       10.46301        9.41890
C         18.06973       11.24689        8.63964
O         18.22843       10.93071        7.30916
C         16.98313       10.78889        6.55228
C         17.25453        9.94732        5.32020
C         15.95788        9.53972        4.60607
C         16.19265        8.52348        3.48205
C         14.89791        8.08664        2.79384
C         19.89167       12.40536       10.82416
C         20.99487       12.63118       11.87134
F         20.91159       13.97759       12.19448
H          0.41201       -1.06792       -0.68494
H          0.43000        0.70534       -0.62716
H          0.29021       -0.22911        0.87385
H          2.75993       -0.22486       -0.98417
H          2.62031       -1.16010        0.50036
H          2.39833        0.96862        1.82581
H          2.53587        1.90842        0.34210
H          4.83669        0.96922       -0.04989
H          4.69828        0.00315        1.41630
H          4.48393        2.10384        2.78714
H          4.62085        3.07638        1.32449
H          6.91635        2.13301        0.90507
H          6.77476        1.13498        2.34887
H          6.56950        3.21168        3.76437
H          6.73495        4.21013        2.32212
H          9.01848        3.24679        1.90405
H          8.84464        2.20317        3.31173
H          8.65824        4.23381        4.79441
H          8.86818        5.27778        3.39060
H         11.13922        4.29837        2.97807
H         10.91622        3.18064        4.32055
H         10.73916        5.11952        5.91441
H         10.99606        6.24399        4.58256
H         13.26303        5.28557        4.16543
H         12.99480        4.05218        5.39282
H         12.80993        5.81638        7.16176
H         13.05618        7.07476        5.95441
H         15.33277        6.17922        5.44101
H         15.09774        4.86090        6.58400
H         14.94629        6.46549        8.47878
H         15.00165        7.82956        7.36581
H         17.29273        7.11116        6.60152
H         17.28589        5.80923        7.78562
H         17.26137        7.39183        9.66165
H         16.82607        8.72215        8.59401
H         19.08171        8.44459        7.40828
H         19.53098        7.21901        8.61202
H         18.26853       12.30955        8.86235
H         17.07610       10.97314        9.03669
H         16.61400       11.79446        6.29261
H         16.23526       10.30000        7.20080
H         17.79500        9.03890        5.63023
H         17.92124       10.49105        4.63354
H         15.45565       10.43335        4.19894
H         15.25751        9.10401        5.34014
H         16.70620        7.64027        3.89932
H         16.88411        8.95231        2.73827
H         14.19632        7.63269        3.50923
H         15.09578        7.34591        2.00809
H         14.38742        8.93957        2.32375
H         18.91007       12.64721       11.25655
H         20.07435       13.05007        9.95184
H         21.99343       12.41956       11.46396
H         20.82942       12.03263       12.77781
