41

C          0.96676       -0.43887        0.26879
C          2.36938        0.01379       -0.15520
C          2.65951        1.51546        0.05391
C          2.60480        1.96128        1.54688
N          3.22765        3.24707        1.81133
C          2.64113        3.89380        2.96431
C          2.99107        3.05215        4.19502
N          2.64889        1.58877        3.97948
C          3.10026        0.99795        2.65074
C          4.59464        0.64324        2.92308
O          4.90552        0.51695        4.10144
C          5.57140        0.41498        1.82185
N          3.21157        5.23488        3.14193
N          3.13044        5.92253        1.89659
N          2.59867        5.96631        4.19438
C          3.86997        1.99987       -0.75918
O          3.69174        3.40357       -0.99004
H          0.80982       -1.49607        0.02068
H          0.19235        0.14320       -0.25047
H          0.77883       -0.33541        1.34878
H          2.48693       -0.19366       -1.22907
H          3.13170       -0.61159        0.34029
H          1.81722        2.05902       -0.40992
H          1.50724        2.01333        1.75526
H          3.23625        3.88333        1.00581
H          1.51721        3.95666        2.87220
H          2.45581        3.36130        5.10064
H          4.07264        3.10856        4.36528
H          1.64488        1.42757        4.11470
H          3.21136        1.04564        4.67547
H          2.57969        0.02803        2.56964
H          5.13899       -0.14637        0.98468
H          6.45286       -0.09758        2.21976
H          5.87405        1.40151        1.43605
H          3.87898        6.61614        1.89246
H          2.24342        6.43911        1.83877
H          3.13288        5.87642        5.05696
H          1.61241        5.72025        4.34644
H          3.87938        1.45023       -1.71667
H          4.82980        1.81035       -0.25749
H          4.46379        3.74697       -1.46592
