84

C          0.77888       -0.23097       -0.09487
C          2.30810       -0.16487       -0.09349
C          2.86391        1.01127        0.71681
C          4.39329        1.09494        0.71412
C          4.94247        2.28293        1.51004
C          6.47154        2.37037        1.51161
C          7.01393        3.56455        2.30346
C          8.54372        3.62980        2.33933
C          9.08865        4.80944        3.15183
C         10.61730        4.81368        3.25061
C         11.17280        5.96669        4.09452
C         12.70061        5.89202        4.24347
C         13.23586        7.02329        5.11118
N         14.75281        7.03606        5.19949
C         15.28768        8.33193        5.77377
C         16.82159        8.32173        5.77314
C         17.42843        8.44107        4.37100
C         18.95649        8.36153        4.36453
C         19.47644        8.47100        2.92583
O         18.85543        9.09639        2.06834
N         20.66675        7.82400        2.72025
C         21.47097        7.75868        1.55780
C         22.68159        7.05266        1.66303
C         23.52806        6.94142        0.56279
C         23.17846        7.53208       -0.65531
C         21.97505        8.23347       -0.75572
C         21.11422        8.35521        0.33729
O         17.27528        7.17764        6.51643
C         16.85120        5.93483        5.95667
C         15.32443        5.85618        5.95985
C         17.49094        4.82762        6.78093
C         18.98924        4.74280        6.49723
O         19.52038        5.15153        5.48153
O         19.62429        4.12998        7.50647
C         21.05519        3.94217        7.33408
H          0.41182       -1.08501       -0.68033
H          0.34039        0.68091       -0.52707
H          0.38274       -0.33404        0.92650
H          2.67584       -0.09531       -1.13133
H          2.71815       -1.10724        0.30813
H          2.50320        0.93913        1.75831
H          2.44715        1.95422        0.32015
H          4.75343        1.15642       -0.32804
H          4.81136        0.15738        1.12168
H          4.58065        2.22286        2.55171
H          4.52437        3.21941        1.10051
H          6.83698        2.42472        0.47105
H          6.88955        1.43712        1.92897
H          6.62866        3.52058        3.33743
H          6.61604        4.50028        1.87319
H          8.93464        3.68298        1.30822
H          8.93568        2.68786        2.76226
H          8.65965        4.78014        4.16868
H          8.74411        5.75745        2.70384
H         11.05341        4.85859        2.23769
H         10.95285        3.85518        3.68404
H         10.70825        5.94610        5.09501
H         10.89054        6.93191        3.64173
H         13.16860        5.93982        3.24409
H         12.96283        4.91313        4.67362
H         12.86562        6.96909        6.14476
H         12.95260        8.00218        4.69906
H         15.10749        6.96994        4.23229
H         14.89396        8.40631        6.79582
H         14.88382        9.15160        5.16556
H         17.14780        9.18142        6.37828
H         17.11312        9.39789        3.92895
H         17.03912        7.66806        3.68362
H         19.30250        7.43472        4.84187
H         19.37625        9.20121        4.94420
H         21.03264        7.31189        3.51841
H         22.95941        6.59344        2.61500
H         24.46555        6.39303        0.65897
H         23.84048        7.44665       -1.51687
H         21.69335        8.69942       -1.70081
H         20.17957        8.90268        0.25750
H         17.22148        5.83621        4.91830
H         14.91801        5.91514        6.97944
H         14.96882        4.94010        5.47411
H         17.05164        3.85009        6.52424
H         17.32208        4.98867        7.85444
H         21.36931        3.34214        8.19202
H         21.56300        4.91453        7.33578
H         21.25963        3.41879        6.39262
