68

C          1.48410        0.58388       -0.29287
C          2.56448       -0.17505       -1.06713
C          3.36304       -1.14959       -0.19444
C          4.43355       -1.93061       -0.96380
C          5.25990       -2.86631       -0.07572
C          6.28657       -3.69811       -0.85323
C          7.13091       -4.60080        0.05659
C          8.08122       -5.47958       -0.74049
O          8.81969       -6.39229        0.15181
C          9.99060       -5.96399        0.62501
O         10.55013       -4.91878        0.34963
C         10.55505       -6.97600        1.62708
N         11.99433       -6.78349        1.85206
C         12.44691       -5.54195        2.14797
N         13.54994       -4.95803        1.63217
N         13.80613       -3.72413        2.14464
C         12.82901       -3.54154        2.99249
N         11.98033       -4.62428        3.05557
C         10.86806       -4.76071        4.00836
C         11.05611       -5.83518        5.09623
C         12.28214       -5.60193        6.00738
C         13.64747       -6.02743        5.45239
C          9.75921       -5.87646        5.91922
Si        13.03329       -8.28290        1.69457
C         12.39299       -9.48219        2.98344
C         12.81205       -8.93463       -0.04564
C         14.82164       -7.83584        2.03173
H          0.93369        1.27712       -0.94338
H          1.91978        1.17468        0.52666
H          0.75132       -0.10594        0.15172
H          3.25913        0.54501       -1.53225
H          2.10186       -0.72860       -1.90185
H          2.66893       -1.86124        0.28690
H          3.83925       -0.59053        0.63080
H          5.10861       -1.22257       -1.47557
H          3.95039       -2.51871       -1.76363
H          4.58276       -3.54625        0.47024
H          5.77950       -2.27185        0.69622
H          6.95020       -3.02635       -1.42398
H          5.76076       -4.31657       -1.60060
H          6.47172       -5.24400        0.66154
H          7.71192       -3.97842        0.75718
H          8.81181       -4.89145       -1.31058
H          7.54390       -6.15689       -1.41559
H         10.39289       -7.98839        1.23704
H          9.95791       -6.91773        2.55385
H         14.12308       -5.31684        0.87593
H         12.69602       -2.64752        3.59298
H          9.94612       -4.93475        3.43644
H         10.76013       -3.77292        4.47921
H         11.17917       -6.81465        4.60092
H         12.10422       -6.16597        6.93525
H         12.31082       -4.54197        6.31447
H         13.62262       -7.06915        5.09936
H         14.41252       -5.97131        6.23760
H         14.00208       -5.39696        4.62661
H          9.60632       -4.93480        6.46786
H          9.80100       -6.68586        6.65860
H          8.87452       -6.04422        5.28861
H         11.32934       -9.72200        2.85047
H         12.53275       -9.09341        4.00113
H         12.95088      -10.42696        2.90791
H         11.77670       -9.22617       -0.26845
H         13.43354       -9.83263       -0.17623
H         13.12788       -8.19778       -0.79684
H         14.96686       -7.25645        2.95172
H         15.30942       -7.31050        1.19934
H         15.36433       -8.78501        2.15707
