70

C          1.20005       -0.85215        9.45598
C          2.57588       -0.60473        8.83501
C          3.04866       -1.74841        7.93216
C          4.43309       -1.50605        7.32529
C          4.93321       -2.65424        6.44294
C          6.34907       -2.41872        5.90940
C          6.89550       -3.58076        5.07298
C          8.33908       -3.33240        4.61873
C          8.90332       -4.53322        3.86149
N         10.34537       -4.38161        3.55128
C         11.04291       -3.18868        3.53468
N         12.33264       -3.37313        3.43947
N         12.46682       -4.72174        3.33051
C         11.28677       -5.37850        3.41114
N         11.07800       -6.71538        3.31428
C         11.98995       -7.76956        3.93602
C         12.63086       -8.66561        2.81765
C         13.30336       -7.90218        1.66221
C         13.60016       -9.72067        3.37954
C         13.04206       -7.14612        4.88880
O         14.16508       -6.48065        4.29315
C         11.08752       -8.61244        4.86600
C          9.91916       -7.18748        2.51447
C          9.81613       -6.53289        1.12907
C          8.48681       -6.88872        0.43847
S          7.87727       -5.43390       -0.43292
O          7.46677       -4.45418        0.56112
O          8.81529       -5.09681       -1.46984
O          6.54670       -6.02751       -1.13316
H          0.89255       -0.01532       10.09714
H          1.20070       -1.76230       10.07408
H          0.42932       -0.97942        8.68160
H          3.31865       -0.44781        9.63540
H          2.55647        0.33212        8.25307
H          2.31337       -1.90385        7.12316
H          3.06417       -2.68763        8.51300
H          5.15909       -1.33565        8.13970
H          4.41539       -0.57335        6.73503
H          4.23879       -2.80199        5.59788
H          4.91500       -3.59342        7.02329
H          7.02867       -2.23874        6.76067
H          6.36570       -1.49487        5.30594
H          6.25176       -3.74377        4.19254
H          6.85258       -4.50915        5.66908
H          8.96913       -3.12453        5.49945
H          8.36228       -2.43518        3.98014
H          8.35088       -4.68732        2.92165
H          8.81219       -5.43550        4.48247
H         10.56837       -2.21689        3.60021
H         13.39234       -5.18095        3.39444
H         11.79225       -9.23296        2.37912
H         14.28673       -7.49861        1.93604
H         12.69656       -7.06625        1.29307
H         13.46588       -8.58677        0.81902
H         14.51120       -9.27235        3.80658
H         13.93128      -10.37912        2.56600
H         13.14794      -10.35820        4.14882
H         13.40223       -7.95273        5.54105
H         12.55868       -6.40505        5.54226
H         14.83152       -7.13627        4.03478
H         10.26987       -9.09615        4.31864
H         10.64811       -7.98266        5.65158
H         11.66451       -9.40544        5.35545
H          8.97687       -7.04222        3.06412
H         10.03791       -8.26983        2.39795
H         10.65774       -6.83313        0.49334
H          9.88526       -5.44022        1.23320
H          7.69745       -7.16034        1.15362
H          8.58571       -7.69216       -0.30182
H          5.77246       -5.58237       -0.73681
