55

C          1.22869        0.94782       -1.20757
O          2.59190        1.11156       -0.80102
C          2.74018        1.08276        0.60477
N          4.16437        1.04061        0.91016
C          4.95449       -0.19539        0.58227
C          5.67272        0.04669       -0.75240
C          6.64860        1.20848       -0.58451
N          6.09942        2.21597        0.33850
C          4.87006        2.20219        0.87017
N          4.37738        3.35091        1.37845
C          3.59959        3.48006        2.60487
C          4.14836        4.71416        3.33747
O          5.04117        5.39790        2.86557
O          3.51429        4.91278        4.48397
C          3.92381        6.09179        5.27248
C          2.97281        6.21370        6.44660
C          3.32638        7.41658        7.32818
C          4.11576       -1.47129        0.61458
C          3.66681       -1.90998        2.02360
C          2.76641       -3.12220        1.96847
C          1.37183       -2.97893        1.98357
C          0.53586       -4.09286        1.87498
C          1.08752       -5.37006        1.74914
C          2.47646       -5.52626        1.73876
C          3.30820       -4.41025        1.84823
H          1.22730        0.96770       -2.30206
H          0.59424        1.76686       -0.82866
H          0.82298       -0.01767       -0.85889
H          2.25507        0.19408        1.03827
H          2.29148        1.97738        1.06469
H          5.71146       -0.27031        1.38340
H          4.92399        0.25915       -1.52699
H          6.23264       -0.84636       -1.05857
H          6.87004        1.69343       -1.54642
H          7.60050        0.86064       -0.15656
H          6.68538        3.01814        0.55283
H          4.94403        4.19598        1.23553
H          3.69388        2.58788        3.24010
H          2.52805        3.64275        2.40861
H          3.89184        6.96781        4.60926
H          4.96535        5.93482        5.58887
H          3.00860        5.28601        7.03782
H          1.94428        6.31130        6.06683
H          4.34227        7.33294        7.73985
H          2.63167        7.48884        8.17392
H          3.26704        8.36086        6.76859
H          4.74191       -2.26824        0.18631
H          3.25321       -1.38921       -0.06406
H          3.14179       -1.08903        2.53781
H          4.56087       -2.12737        2.62994
H          0.93201       -1.98420        2.09693
H         -0.54693       -3.96375        1.89634
H          0.43737       -6.24141        1.66780
H          2.91364       -6.52156        1.65211
H          4.39287       -4.54330        1.84901
