62

C          0.77620       -1.12769        1.74596
C          2.28765       -0.96102        1.57113
C          2.69487        0.47084        1.20436
C          4.20897        0.66079        1.06513
C          4.59941        2.09118        0.67472
C          6.11804        2.29817        0.59082
C          6.47586        3.74375        0.26016
N          7.98482        3.92727        0.22474
C          8.63172        3.65716       -1.11988
C         10.08184        3.26462       -0.87935
C         10.86823        4.32924       -0.08891
C         10.06990        4.79838        1.15232
C          8.60090        5.19453        0.88999
N          8.42388        6.37617        0.07624
C          7.02702        6.77660       -0.14069
C          9.17858        7.52998        0.59955
C         11.35695        5.47933       -0.98694
O         12.19130        4.92985       -2.01317
C         11.90076        5.38704       -3.29980
O         10.59739        4.93471       -3.65596
C         10.10436        5.48117       -4.87884
C          8.60620        5.18361       -4.92839
O          8.00975        5.56748       -6.15758
H          0.51344       -2.16715        1.98336
H          0.23421       -0.85025        0.82970
H          0.39541       -0.49480        2.56109
H          2.64910       -1.65181        0.79079
H          2.80187       -1.25878        2.50063
H          2.31064        1.16621        1.97146
H          2.20060        0.75937        0.26014
H          4.60165       -0.04461        0.31236
H          4.69971        0.39467        2.01764
H          4.17746        2.79798        1.40982
H          4.14088        2.34665       -0.29539
H          6.54216        1.61515       -0.16444
H          6.57515        2.02695        1.56015
H          6.08147        4.42381        1.02636
H          6.07807        4.04871       -0.71473
H          8.33342        3.18002        0.84414
H          8.53456        4.57394       -1.71304
H          8.06213        2.85237       -1.60007
H         10.56691        3.09065       -1.84765
H         10.10602        2.30394       -0.33575
H         11.77816        3.84009        0.29291
H         10.58498        5.61453        1.67339
H         10.04337        3.97356        1.88477
H          8.05352        5.25563        1.85820
H          6.50259        6.07115       -0.79370
H          7.02392        7.74400       -0.65463
H          6.45328        6.89095        0.80137
H         10.25496        7.34197        0.60655
H          8.86254        7.82279        1.62010
H          9.00043        8.38017       -0.06836
H         11.95938        6.18438       -0.38741
H         10.51220        6.02353       -1.43266
H         12.66976        4.95179       -3.95949
H         11.93019        6.49633       -3.36485
H         10.60992        5.02915       -5.75074
H         10.28187        6.57510       -4.91094
H          8.11108        5.66414       -4.06140
H          8.45110        4.09782       -4.84316
H          8.04021        6.53394       -6.23793
