44

C          1.03175        0.54410       -1.07126
C          2.42246        0.75939       -0.51626
O          3.34045        0.92054       -1.62822
C          4.69183        1.09406       -1.23473
C          5.56334        1.21283       -2.51171
N          4.79366        0.46952       -3.65338
C          4.40467        1.52266       -4.65437
C          4.58188        2.83616       -3.88013
O          5.69052        2.51736       -3.00059
C          4.94859        4.03427       -4.73620
C          5.16838        5.31201       -3.91912
C          5.57472        6.50803       -4.80379
C          5.84616        7.70578       -4.02190
C          6.07372        8.68327       -3.34710
C          6.96551        0.63219       -2.29737
C          7.78249        0.56448       -3.59247
C          9.26275        0.23486       -3.33715
F          9.38082       -1.05165       -2.88897
F          9.98665        0.33935       -4.46564
F          9.79220        1.05355       -2.40710
O          7.21896       -0.39703       -4.50681
H          0.31982        0.42527       -0.24407
H          0.98299       -0.36337       -1.68821
H          0.70776        1.40237       -1.67438
H          2.75531       -0.09900        0.09355
H          2.47175        1.66564        0.11088
H          5.03053        0.24008       -0.61874
H          4.83513        2.02129       -0.65303
H          3.95494        0.05656       -3.20591
H          5.44025       -0.22695       -4.07793
H          3.38111        1.34360       -4.99970
H          5.10235        1.45871       -5.49838
H          3.68502        3.04450       -3.27141
H          4.13848        4.18578       -5.46943
H          5.85587        3.78857       -5.31426
H          5.95306        5.14344       -3.16774
H          4.25170        5.56877       -3.36551
H          4.78044        6.72044       -5.53975
H          6.47334        6.24800       -5.38988
H          6.28024        9.55725       -2.76573
H          6.89838       -0.36767       -1.84365
H          7.46796        1.28653       -1.57008
H          7.75623        1.53680       -4.10596
H          7.63622       -1.26433       -4.35180
