71

O          3.65842       -1.53078        5.00353
C          3.22587       -0.66679        3.94855
C          3.49194       -1.35230        2.62759
O          4.91367       -1.47817        2.44733
C          5.28585       -2.32368        1.39551
O          6.62363       -2.76386        1.62402
C          6.79623       -3.58896        2.74386
N          8.19289       -3.29021        3.24026
C          8.23253       -2.08584        4.15884
C          9.67176       -1.75253        4.53033
C         10.38329       -2.96419        5.14649
C         10.34945       -4.20310        4.22071
C          8.87502       -4.49297        3.85894
C         11.15085       -3.98381        2.89870
C         12.62713       -3.58287        3.03672
C         13.35961       -3.38888        1.68929
C         12.95109       -2.06914        1.00564
C         13.45930       -1.90005       -0.43961
C         12.98095       -0.62259       -1.06943
C         13.71918        0.40444       -1.53072
C         15.22396        0.45854       -1.51443
C         13.06019        1.61869       -2.13205
C         14.87678       -3.46407        1.91201
C         10.90972       -5.47598        4.91927
C         10.54872       -5.75309        6.38177
O          9.10884       -5.77939        6.49855
C         11.16025       -7.06877        6.85410
H          3.34683       -1.16315        5.84445
H          3.76016        0.29972        3.97810
H          2.14234       -0.46401        4.00883
H          3.05334       -0.75393        1.80968
H          3.02548       -2.35454        2.62252
H          5.33723       -1.80057        0.42638
H          4.59599       -3.18897        1.32298
H          6.76901       -4.65707        2.47213
H          6.08689       -3.36455        3.55439
H          8.72004       -3.03757        2.38867
H          7.64120       -2.36688        5.04217
H          7.71780       -1.27170        3.63358
H          9.64466       -0.92023        5.24763
H         10.21146       -1.37518        3.64726
H          9.88409       -3.21717        6.09426
H         11.42105       -2.70465        5.39478
H          8.29938       -4.77090        4.75078
H          8.80672       -5.30414        3.11984
H         10.65926       -3.21872        2.27095
H         11.09480       -4.92103        2.31767
H         13.16251       -4.35670        3.60832
H         12.72327       -2.65144        3.62005
H         13.07136       -4.22419        1.02357
H         13.31668       -1.22500        1.61644
H         11.85036       -1.97815        0.98882
H         13.10081       -2.75956       -1.03581
H         14.55607       -1.95253       -0.45793
H         11.89066       -0.52897       -1.15352
H         15.69244       -0.41809       -1.05291
H         15.57106        1.35411       -0.97435
H         15.61575        0.54911       -2.54039
H         11.96531        1.54431       -2.11258
H         13.37735        1.76203       -3.17773
H         13.35524        2.53369       -1.59334
H         15.21530       -2.65294        2.57540
H         15.43391       -3.37814        0.97074
H         15.16245       -4.41859        2.37644
H         12.00702       -5.42734        4.88112
H         10.62406       -6.35649        4.31709
H         10.94186       -4.93341        7.01283
H          8.88565       -6.12427        7.37782
H         10.79200       -7.90795        6.24758
H         10.90226       -7.26157        7.90576
H         12.25657       -7.04212        6.78682
