63

C          0.68586        0.54208       -0.94455
C          2.21267        0.49020       -1.01046
C          2.75346       -0.86542       -1.48070
C          4.28120       -0.87205       -1.60611
C          4.82228       -2.10265       -2.31199
O          6.25507       -1.98545       -2.39069
C          6.86650       -3.00687       -3.14414
C          8.38970       -2.74490       -3.26022
C          8.98481       -2.56493       -1.84373
C         10.34674       -1.93892       -2.07237
N         10.05564       -0.93666       -3.17296
C          8.81920       -1.41267       -3.99436
C          7.86392       -0.21962       -4.09572
C          6.79330       -0.35250       -5.18815
C          5.72817        0.73777       -5.05304
C          4.56355        0.57947       -6.04421
N          3.43049        1.41458       -5.69150
C          2.42906        1.04357       -4.81716
C          1.64031        2.15084       -4.56877
C          2.18876        3.23545       -5.30935
C          3.29514        2.75629       -5.98573
C          8.96589       -3.94480       -4.03220
C          9.65323       -4.99994       -3.42221
C         10.10191       -6.07012       -4.20472
N          9.90441       -6.16348       -5.52476
C          9.22742       -5.16376       -6.10691
C          8.74850       -4.04978       -5.41514
H          0.33505        1.53163       -0.62306
H          0.28548       -0.19809       -0.23648
H          0.23810        0.33506       -1.92791
H          2.63708        0.72687       -0.02034
H          2.57528        1.27237       -1.69744
H          2.30100       -1.11319       -2.45667
H          2.42938       -1.66067       -0.78856
H          4.74408       -0.79494       -0.60923
H          4.59848        0.02097       -2.16909
H          4.40832       -2.17974       -3.33662
H          4.55582       -3.03163       -1.77412
H          6.41364       -3.09510       -4.14921
H          6.74315       -3.99584       -2.65921
H          9.05083       -3.50124       -1.27939
H          8.33209       -1.89113       -1.27080
H         11.08130       -2.65249       -2.46523
H         10.77530       -1.41134       -1.21282
H         10.86708       -0.78642       -3.78264
H          9.82080       -0.02410       -2.76091
H          9.21501       -1.65304       -4.98867
H          8.46822        0.67723       -4.32606
H          7.37710       -0.05358       -3.12396
H          6.30007       -1.33303       -5.12150
H          7.27030       -0.31486       -6.18192
H          6.17722        1.73682       -5.17108
H          5.31075        0.70398       -4.03543
H          4.21821       -0.46622       -6.05618
H          4.88118        0.82302       -7.06927
H          2.35189        0.01881       -4.46849
H          0.75311        2.17063       -3.94396
H          1.80403        4.24872       -5.36067
H          3.98648        3.25002       -6.66133
H          9.84874       -5.02364       -2.34992
H         10.64876       -6.89445       -3.73896
H          9.05669       -5.25745       -7.18264
H          8.19769       -3.28490       -5.96768
