45

F          1.78940       -3.53610       -0.75191
C          1.88129       -3.24587       -2.12108
C          2.88114       -2.11515       -2.32311
C          4.28002       -2.51176       -1.85241
N          5.20794       -1.31565       -1.86731
C          4.99887       -0.41688       -0.65099
C          5.04006        1.03555       -1.04678
C          4.03194        1.97160       -0.51958
O          3.92342        1.44273       -1.85377
C          6.66258       -1.63877       -2.06001
C          7.00682       -2.46236       -3.32255
O          6.10897       -2.38383       -4.47137
C          5.65412       -1.20902       -4.97564
O          5.51712       -0.18762       -4.30900
C          5.33437       -1.32875       -6.43752
S          6.87927       -0.94003       -7.34972
C          8.43190       -2.09433       -3.75545
O          8.90752       -2.91592       -4.82198
C          9.32455       -4.17381       -4.46106
O          9.31517       -4.57243       -3.31494
C          9.73509       -4.96506       -5.67612
S          8.26516       -5.80924       -6.37904
H          0.88296       -2.95015       -2.47326
H          2.18566       -4.17105       -2.63601
H          2.51970       -1.22416       -1.78714
H          2.90290       -1.85180       -3.39277
H          4.70656       -3.27289       -2.51580
H          4.27231       -2.90868       -0.82854
H          4.99629       -0.73974       -2.72389
H          5.76681       -0.67409        0.09111
H          4.01501       -0.66340       -0.23593
H          6.00620        1.44088       -1.36887
H          4.27989        3.03407       -0.46108
H          3.27811        1.61466        0.18874
H          7.01093       -2.19660       -1.18010
H          7.17639       -0.66861       -2.08592
H          6.97230       -3.53197       -3.08423
H          4.52825       -0.64518       -6.72155
H          5.07965       -2.36091       -6.70329
H          6.79341        0.40208       -7.19007
H          9.10072       -2.17708       -2.88417
H          8.45627       -1.06838       -4.14832
H         10.50435       -5.69562       -5.40655
H         10.10480       -4.30537       -6.46947
H          8.16813       -6.74909       -5.40915
