40

N          4.06488       -0.67474        1.97156
C          2.87308       -0.34853        1.17334
C          2.82153        1.16560        0.92376
C          4.02576        1.61003        0.07613
N          4.57503        2.91424        0.48700
C          5.64388        3.13096        1.34820
N          5.83633        4.42341        1.51772
N          4.86447        5.00691        0.77380
C          4.08257        4.12818        0.14018
C          2.92632        4.41282       -0.74728
C          2.78053        5.88562       -1.15478
C          1.62992        6.07899       -2.16843
C          1.80467        5.27439       -3.37086
C          1.98052        4.58578       -4.35033
C          6.49812        2.06054        1.94719
C          6.96282        2.40891        3.37503
C          6.07364        1.88886        4.48538
Br         4.24524        2.65889        4.39595
Br         8.72012        1.55941        3.70241
H          4.29838       -1.66379        1.88767
H          3.87967       -0.50328        2.96148
H          1.92419       -0.66500        1.63850
H          2.94423       -0.88312        0.21332
H          2.85168        1.68240        1.89508
H          1.87557        1.44060        0.43623
H          3.78131        1.67497       -0.99184
H          4.83870        0.88394        0.19532
H          4.80105        6.02109        0.74027
H          2.00961        4.06027       -0.24300
H          3.02369        3.79579       -1.65772
H          3.71626        6.23902       -1.61514
H          2.57467        6.51554       -0.27510
H          1.57140        7.14417       -2.44033
H          0.66573        5.83051       -1.69392
H          2.10865        4.00400       -5.23980
H          7.38105        1.93814        1.30153
H          5.95943        1.09926        1.94584
H          7.15468        3.48223        3.47831
H          6.44693        2.17253        5.47271
H          5.93572        0.80444        4.42757
