52

S          5.91014       -0.85855        0.97744
C          4.69315        0.14374        0.41764
N          4.23304        1.23044        1.07576
C          4.77120        1.64284        2.38152
C          3.63018        1.76974        3.39028
O          2.62659        2.67431        2.93379
C          2.07702        2.23171        1.70091
C          3.15522        2.11967        0.61691
S          3.84494       -0.13306       -1.15533
C          4.54769       -1.69687       -1.75426
C          5.60982       -1.53020       -2.85233
C          6.87258       -0.87945       -2.30719
N          7.82069       -0.44348       -3.42154
C          8.35195       -1.55348       -4.26377
C          8.40417       -1.34333       -5.64112
C          8.89126       -2.35836       -6.46804
C          9.31439       -3.56805       -5.91171
C          9.25038       -3.76377       -4.52908
C          8.76667       -2.75514       -3.68916
C          8.85157        0.60085       -2.95256
C         10.09329        0.14841       -2.12453
N         11.06008       -0.50822       -2.99605
N         10.63548        1.42638       -1.64870
N          9.65629       -0.70889       -1.02244
H          5.26989        2.61878        2.25732
H          5.50779        0.89839        2.70342
H          4.01190        2.17603        4.33614
H          3.18843        0.77347        3.58303
H          1.32511        2.97429        1.40313
H          1.57829        1.25137        1.82869
H          3.58813        3.11480        0.41985
H          2.71187        1.74387       -0.31252
H          3.69042       -2.25860       -2.14782
H          4.95063       -2.21944       -0.87216
H          5.18957       -0.91893       -3.67015
H          5.83080       -2.52228       -3.27418
H          7.43821       -1.51869       -1.62657
H          6.62071        0.03972       -1.76206
H          7.22485        0.09720       -4.06499
H          8.06986       -0.39748       -6.07559
H          8.93295       -2.20118       -7.54562
H          9.68899       -4.36209       -6.55763
H          9.57357       -4.70960       -4.09391
H          8.72564       -2.90564       -2.61117
H          8.27843        1.31721       -2.35330
H          9.21801        1.09363       -3.86137
H         11.96884       -0.55599       -2.53320
H         10.77922       -1.45795       -3.24614
H         11.24056        1.85534       -2.35153
H         11.17772        1.29010       -0.79597
H         10.47045       -1.09437       -0.54077
H          9.10513       -0.18980       -0.33229
