33

F          1.01864       -0.20450        0.85880
C          2.32709        0.05259        0.45085
C          2.69755       -0.91648       -0.66902
C          4.11535       -0.62156       -1.18203
C          4.68561       -1.43904       -2.36510
N          3.57935       -1.51927       -3.50195
C          3.18702       -0.21180       -4.12635
C          4.46551        0.47317       -4.59927
O          5.39515        0.59756       -3.53058
C          5.87206       -0.67964       -3.03816
N          6.96387       -0.53855       -2.14867
N          5.02341       -2.79501       -1.97754
N          3.82806       -3.58627       -1.81026
N          6.04186       -3.51040       -2.63129
H          2.98512       -0.07202        1.32627
H          2.37488        1.10259        0.11663
H          1.93735       -0.79881       -1.46107
H          2.60194       -1.94192       -0.29343
H          4.82931       -0.78992       -0.36250
H          4.18384        0.44404       -1.44985
H          2.80832       -2.03850       -3.04291
H          3.94041       -2.14192       -4.23727
H          2.66958        0.38213       -3.36469
H          2.49333       -0.41474       -4.95375
H          4.24090        1.48663       -4.95392
H          4.91547       -0.08959       -5.44280
H          6.21190       -1.26010       -3.91939
H          6.74140        0.01257       -1.32086
H          7.77336       -0.12441       -2.60835
H          3.83594       -3.95233       -0.85366
H          3.93539       -4.41172       -2.40942
H          6.94628       -3.21806       -2.25878
H          6.05037       -3.41549       -3.65388
