80

O          2.97267       -1.96762        1.26725
C          2.74473       -0.91877        0.30599
C          3.54351        0.33630        0.69732
N          3.16527        0.90027        2.03291
C          3.85575        0.41560        3.13671
N          3.56547       -0.73384        3.76902
C          4.56637       -1.03028        4.80223
C          5.34948        0.30516        4.89339
N          4.86322        1.06144        3.72311
C          5.40671        2.36345        3.33855
C          5.32742        3.41753        4.44729
C          5.94933        4.77213        4.04253
C          5.24562        5.39089        2.82007
C          5.85355        6.70755        2.29616
C          5.25498        7.10465        0.97251
C          4.20792        7.92529        0.76661
C          3.45585        8.62248        1.86967
C          3.70276        8.20559       -0.62359
C          5.94340        5.71422        5.25411
C          1.70373        1.07258        2.26090
C          1.38191        2.15881        3.28591
C          1.75368        3.60067        2.88692
C          1.06306        4.03854        1.58221
C          1.45551        5.44315        1.08379
C          0.92213        5.72153       -0.29265
C         -0.14658        6.46889       -0.62559
C         -1.01410        7.19660        0.36725
C         -0.55151        6.63263       -2.06707
C          1.44622        4.54797        4.05464
C          5.05260        0.11973        0.58278
H          2.56304       -2.78152        0.93603
H          1.66915       -0.68730        0.24640
H          3.07784       -1.23245       -0.69716
H          3.24757        1.11224       -0.02843
H          3.11181       -1.46137        3.20760
H          5.20496       -1.86618        4.48144
H          4.09089       -1.29936        5.75273
H          6.43884        0.17623        4.84035
H          5.11212        0.85913        5.81214
H          4.83847        2.67013        2.45306
H          6.45585        2.20972        3.03392
H          5.85606        3.05517        5.34323
H          4.27368        3.56147        4.73695
H          7.00394        4.58207        3.76562
H          4.18515        5.56963        3.06403
H          5.24602        4.67472        1.98165
H          6.94289        6.58032        2.17867
H          5.71778        7.50538        3.04037
H          5.71403        6.64340        0.09083
H          3.81089        8.36146        2.87357
H          2.38253        8.37973        1.81465
H          3.52722        9.71636        1.75846
H          4.29382        7.68149       -1.38554
H          3.73894        9.28466       -0.84514
H          2.65009        7.89722       -0.73028
H          4.91397        5.97985        5.54113
H          6.48124        6.64673        5.04373
H          6.42491        5.24822        6.12542
H          1.22362        0.12367        2.55868
H          1.28431        1.34676        1.28403
H          1.86123        1.91066        4.24964
H          0.29765        2.10398        3.48114
H          2.83957        3.63110        2.69963
H         -0.03318        3.99530        1.70735
H          1.30275        3.32404        0.77711
H          2.55533        5.52532        1.06503
H          1.10523        6.20209        1.79694
H          1.46626        5.23403       -1.11005
H         -0.69508        7.06180        1.40750
H         -2.05822        6.85337        0.28920
H         -1.02970        8.27729        0.15305
H          0.11836        6.08765       -2.74438
H         -0.54582        7.69520       -2.35986
H         -1.57954        6.27284       -2.23446
H          0.36200        4.61490        4.23374
H          1.81374        5.56494        3.86688
H          1.91144        4.19803        4.98821
H          5.41504       -0.64963        1.27832
H          5.60670        1.04932        0.75815
H          5.29459       -0.22183       -0.43099
