76

N          5.07826       -1.38029        3.75718
C          4.05432       -2.42062        3.48463
C          3.15681       -2.03372        2.30707
C          3.85089       -1.63736        0.99119
C          4.78396       -2.70038        0.36679
C          6.24972       -2.55411        0.64873
N          6.74967       -1.95448        1.69575
C          8.21608       -1.77947        1.71012
C          8.78491       -2.83723        0.73649
S          7.41070       -3.19620       -0.44770
C          9.22782       -4.12604        1.42457
O          9.62364       -5.01855        0.40843
C          9.99361       -6.31234        0.76299
C         10.08432       -6.71959        2.09733
C         10.46533       -8.02845        2.42899
C         10.54277       -8.46386        3.87024
C         10.75270       -8.91210        1.38442
C         10.66331       -8.48965        0.05738
C         10.28741       -7.18977       -0.30113
C         10.21873       -6.80963       -1.77384
C          8.77838       -6.53724       -2.24880
C         11.18170       -5.67047       -2.15956
C          8.58669       -0.33276        1.34026
C          8.04108        0.74065        2.29612
C          8.48302        0.61611        3.76793
C         10.00088        0.51278        3.99600
C         10.79500        1.70869        3.45750
C         12.30158        1.47388        3.53276
O         13.03913        2.57151        2.94837
C         13.15190        2.55094        1.58548
O         12.67185        1.67689        0.88259
C         13.92824        3.72642        1.12384
C         14.18277        3.92227       -0.17455
H          5.54946       -1.57154        4.64398
H          4.63722       -0.46326        3.86431
H          3.42199       -2.61757        4.36446
H          4.59437       -3.35816        3.27194
H          2.50881       -1.19567        2.61238
H          2.47646       -2.87904        2.11888
H          4.40006       -0.69039        1.10709
H          3.06043       -1.42329        0.25931
H          4.67388       -2.70634       -0.72780
H          4.48908       -3.71792        0.67959
H          6.12123       -1.58464        2.51348
H          8.56808       -2.00586        2.72949
H          9.61202       -2.42769        0.14217
H          8.40401       -4.54685        2.03333
H         10.06859       -3.88514        2.10481
H          9.87391       -6.01954        2.90642
H         10.64479       -7.60650        4.54860
H         11.39591       -9.13418        4.03909
H          9.63575       -9.01431        4.16531
H         11.05718       -9.93604        1.60668
H         10.90059       -9.19355       -0.74319
H         10.56214       -7.70655       -2.31498
H          8.35868       -5.64095       -1.77295
H          8.11969       -7.38379       -2.01193
H          8.75655       -6.38364       -3.33703
H         10.87760       -4.71127       -1.72030
H         11.20709       -5.54959       -3.25171
H         12.20350       -5.88787       -1.82044
H          8.22881       -0.12943        0.31835
H          9.68573       -0.27911        1.29535
H          6.93929        0.75170        2.25487
H          8.35040        1.71844        1.89965
H          7.99752       -0.25878        4.23518
H          8.09323        1.49037        4.31300
H         10.38882       -0.41233        3.53320
H         10.18605        0.39786        5.07582
H         10.53491        2.62127        4.01652
H         10.54031        1.89387        2.40413
H         12.57417        0.54518        3.00890
H         12.65629        1.42290        4.57067
H         14.27831        4.41359        1.89504
H         13.82206        3.21496       -0.92307
H         14.75444        4.78349       -0.51837
