74

C          2.91586        2.14130       -1.78248
C          4.01292        1.51091       -0.92084
C          4.49813        0.16101       -1.46027
C          5.61032       -0.47767       -0.62129
C          6.08498       -1.81941       -1.18721
C          7.22040       -2.46303       -0.38376
C          7.69910       -3.77857       -1.01873
C          8.83697       -4.39057       -0.21045
N          9.60592       -5.51616       -0.90845
C          8.69644       -6.73914       -1.12135
O          8.60024       -7.32030        0.12843
C          9.94045       -7.33742        0.68988
C         10.63671       -6.10623        0.05152
C         10.64097       -8.66757        0.41391
C         12.07686       -8.65187        0.91942
O         12.61028       -7.65596        1.38291
O         12.65417       -9.84519        0.75143
C         14.06353       -9.97080        1.14870
C         14.19981      -10.43637        2.58919
C         15.67123      -10.66950        2.96225
C         15.84694      -11.16879        4.39808
C         10.19856       -5.08773       -2.24262
C         10.91358       -3.72050       -2.30109
C         12.23462       -3.62053       -1.50585
N         12.83829       -2.31045       -1.44274
C         12.16329       -1.33630       -0.58900
C         12.91422       -0.01509       -0.62408
O         12.85816        0.45699       -1.97583
O         11.11034       -3.44055       -3.68464
H          2.58451        3.10378       -1.37031
H          2.03349        1.48748       -1.84838
H          3.26872        2.32354       -2.80847
H          3.64410        1.37914        0.11035
H          4.86954        2.20236       -0.84979
H          4.85543        0.29166       -2.49708
H          3.64277       -0.53476       -1.52216
H          5.25640       -0.61899        0.41479
H          6.46633        0.21699       -0.55884
H          6.41904       -1.67585       -2.22972
H          5.23212       -2.51832       -1.23493
H          6.89100       -2.64419        0.65312
H          8.07108       -1.76217       -0.32050
H          8.01640       -3.56769       -2.05134
H          6.85106       -4.47746       -1.08331
H          8.46697       -4.82513        0.72755
H          9.59175       -3.63574        0.04610
H          9.20450       -7.36522       -1.87690
H          7.70715       -6.43113       -1.47440
H          9.81416       -7.19609        1.77010
H         11.52306       -6.38462       -0.52457
H         10.92227       -5.35257        0.78849
H         10.65646       -8.89920       -0.66374
H         10.08861       -9.48709        0.89434
H         14.55516       -9.00253        0.98469
H         14.46367      -10.71180        0.44481
H         13.62578      -11.36704        2.72358
H         13.75958       -9.68229        3.26093
H         16.23582       -9.73262        2.82395
H         16.11322      -11.39849        2.26253
H         15.44803      -10.44587        5.12452
H         16.90707      -11.32724        4.63506
H         15.32398      -12.12301        4.55624
H          9.37298       -5.06078       -2.96502
H         10.88340       -5.89374       -2.54453
H         10.22289       -2.93397       -1.96042
H         12.95490       -4.33052       -1.95838
H         12.08484       -3.96374       -0.46932
H         12.97942       -1.90726       -2.37077
H         12.15759       -1.71533        0.44726
H         11.10693       -1.13767       -0.87670
H         13.95778       -0.17926       -0.30572
H         12.43662        0.70001        0.06915
H         13.44942        1.21911       -2.06694
H         11.91769       -3.88973       -3.99012
