77

C          3.05842       -1.40467        1.39016
C          4.56182       -1.68111        1.46948
C          5.00350       -2.86366        0.60119
C          6.50335       -3.16687        0.67697
C          6.92096       -4.35790       -0.19029
C          8.41165       -4.70160       -0.10992
C          8.78651       -5.92790       -0.94842
C         10.27339       -6.29707       -0.87707
C         10.61604       -7.65656       -1.50947
C         10.26001       -7.80952       -2.99802
C         10.97559       -6.83964       -3.93384
O         12.42557       -6.86806       -3.81975
C         12.99143       -8.07986       -4.21544
N         14.44213       -7.88511       -4.22655
C         15.22754       -7.42247       -5.28007
C         14.73761       -7.05945       -6.64268
C         15.76953       -7.35418       -7.74609
C         15.95295       -8.85755       -7.97426
S         17.26983       -9.15601       -9.17394
O         16.85419       -8.65828      -10.46793
O         18.51622       -8.76787       -8.56690
O         17.24522      -10.78023       -9.22591
N         16.48222       -7.32048       -4.89128
N         16.47037       -7.69342       -3.58989
C         15.26276       -8.03153       -3.15360
C         14.89992       -8.45099       -1.77200
C         16.11987       -8.64544       -0.86005
O         17.26470       -8.36021       -1.17968
O         15.73381       -9.15608        0.29947
C         16.78015       -9.38372        1.32287
C         16.98875       -8.14825        2.18280
C         18.00719       -8.41155        3.30270
C         18.23121       -7.18591        4.19197
H          2.77052       -0.55342        2.02196
H          2.47437       -2.27604        1.72206
H          2.74789       -1.17344        0.36034
H          4.84688       -1.87405        2.51764
H          5.12010       -0.77909        1.16665
H          4.72326       -2.66784       -0.44911
H          4.43651       -3.76346        0.89921
H          6.78357       -3.36355        1.72677
H          7.07535       -2.27210        0.37452
H          6.64994       -4.15559       -1.24164
H          6.33134       -5.24351        0.10561
H          8.69020       -4.88351        0.94282
H          9.01029       -3.83259       -0.43527
H          8.48804       -5.74531       -1.99541
H          8.18458       -6.79063       -0.61170
H         10.58256       -6.32986        0.18038
H         10.87915       -5.49553       -1.33397
H         10.09109       -8.45040       -0.95495
H         11.69241       -7.85577       -1.36733
H          9.18080       -7.65090       -3.14961
H         10.43823       -8.84961       -3.31820
H         10.72449       -5.79692       -3.70397
H         10.70046       -7.03261       -4.98620
H         12.68056       -8.38451       -5.23129
H         12.77337       -8.91485       -3.52614
H         14.50160       -5.98252       -6.63466
H         13.78817       -7.57547       -6.84906
H         16.73197       -6.89456       -7.48218
H         15.42708       -6.87929       -8.67485
H         15.04608       -9.33024       -8.37699
H         16.26629       -9.38898       -7.06430
H         16.91247      -11.03628      -10.10794
H         17.30381       -7.73949       -2.98532
H         14.31201       -9.38135       -1.78885
H         14.24175       -7.69006       -1.31942
H         17.69810       -9.68954        0.80468
H         16.38217      -10.22636        1.90053
H         16.02389       -7.84294        2.61815
H         17.34149       -7.31641        1.55252
H         18.96555       -8.72657        2.85865
H         17.66225       -9.25722        3.92006
H         18.60922       -6.33256        3.61090
H         18.96373       -7.40096        4.98050
H         17.29881       -6.87064        4.68193
