57

C          1.11429        0.06404       -0.04045
C          2.63673        0.00257       -0.18475
C          3.26836        1.39177       -0.36692
C          4.76876        1.29311       -0.54166
O          5.31034        2.66548       -0.67354
C          6.55203        2.76916       -1.13794
O          7.30958        1.87254       -1.45218
C          6.94998        4.22712       -1.18419
N          7.80646        4.70280       -2.04272
C          8.41315        4.00221       -3.17915
C          8.08124        6.16017       -1.83570
C          7.40632        6.45962       -0.48467
C          6.45350        5.27169       -0.24681
C          9.58674        6.45564       -1.86431
O          9.67573        7.82902       -1.56786
C         10.93947        8.38512       -1.38260
C         12.11033        7.65043       -1.59420
C         13.37035        8.23604       -1.41239
C         14.63155        7.44389       -1.64214
C         13.41697        9.57704       -1.01273
C         12.24026       10.29723       -0.80926
C         10.96870        9.73693       -0.98270
C          9.73304       10.59138       -0.73629
C          8.84786       10.76348       -1.98551
C          8.91845       10.12269        0.48498
H          0.69205       -0.94056        0.08976
H          0.64466        0.50983       -0.92895
H          0.81776        0.66428        0.83179
H          2.89989       -0.63496       -1.04491
H          3.07396       -0.48486        0.70213
H          3.03962        2.02415        0.50579
H          2.83081        1.88845       -1.24782
H          5.05970        0.73062       -1.43980
H          5.26921        0.83982        0.32706
H          7.96379        3.01521       -3.29904
H          9.48897        3.88194       -2.99652
H          8.26806        4.61773       -4.07590
H          7.59795        6.69625       -2.67038
H          6.88793        7.42252       -0.49941
H          8.16620        6.50790        0.30649
H          5.40325        5.48883       -0.51231
H          6.42655        4.90724        0.78917
H         10.02154        6.23161       -2.85509
H         10.10532        5.83708       -1.10492
H         12.06558        6.60893       -1.91392
H         14.41557        6.42990       -2.00203
H         15.21659        7.35448       -0.71500
H         15.27774        7.93523       -2.38352
H         14.38136       10.06466       -0.86214
H         12.30171       11.34267       -0.49998
H         10.12411       11.59122       -0.48707
H          8.35043        9.82489       -2.26432
H          9.44062       11.10071       -2.84629
H          8.06898       11.51546       -1.79669
H          8.45971        9.14100        0.30765
H          8.11178       10.83674        0.70280
H          9.55253       10.04397        1.37818
