60

C          8.23561       -2.43634      -10.07739
O          7.83737       -1.07275      -10.01253
C          7.79107       -0.58643       -8.68499
C          7.25532        0.83735       -8.74471
O          7.27169        1.36590       -7.41773
C          6.74071        2.67214       -7.34477
C          6.76533        3.14135       -5.90682
O          8.12817        3.36657       -5.49646
C          8.26241        3.80703       -4.15919
C          9.76178        3.84813       -3.87741
N         10.47220        4.53769       -5.01782
C         10.35428        6.03927       -4.99114
C         10.83600        6.59334       -6.34200
O         12.17954        6.16892       -6.55445
C         12.31515        4.74553       -6.59924
C         11.92280        4.09236       -5.26680
C         12.90947        4.42845       -4.13349
C         12.98330        3.52756       -2.88108
C         13.26072        2.03634       -3.07887
C         14.51153        1.65013       -3.93284
Br        16.15127        2.49094       -3.28688
F         14.66955        0.31930       -3.97323
F         14.29493        2.06418       -5.22169
Br        13.40419        1.18182       -1.32286
F         12.18032        1.44677       -3.73863
N          9.96440        6.15728       -7.43287
C          8.58761        6.64944       -7.29654
C         10.50413        6.56214       -8.74315
H          8.23312       -2.72049      -11.13640
H          7.53298       -3.08675       -9.52583
H          9.25101       -2.58075       -9.66504
H          8.79764       -0.59156       -8.22060
H          7.12873       -1.21105       -8.05405
H          6.22766        0.83847       -9.15225
H          7.88757        1.44935       -9.41532
H          5.68869        2.69724       -7.69448
H          7.31814        3.37296       -7.98231
H          6.31084        2.37754       -5.25297
H          6.18823        4.07953       -5.81315
H          7.79643        3.10725       -3.44200
H          7.78096        4.79483       -4.01277
H         10.16155        2.82835       -3.83267
H          9.98537        4.37293       -2.94081
H          9.93799        4.24066       -5.86488
H         10.98132        6.42575       -4.18080
H          9.31140        6.29485       -4.77853
H         10.90588        7.69897       -6.26581
H         13.37280        4.54474       -6.80788
H         11.70924        4.32136       -7.41681
H         11.86077        3.00708       -5.41958
H         12.75755        5.45877       -3.78187
H         13.90199        4.44816       -4.60346
H         12.06377        3.57548       -2.28246
H         13.78000        3.92362       -2.23852
H          8.08077        6.21031       -6.42805
H          8.02186        6.34440       -8.18528
H          8.53110        7.75437       -7.22189
H         11.52599        6.19264       -8.87231
H         10.51775        7.66283       -8.86610
H          9.87277        6.13191       -9.52965
