65

C          8.71728       -2.62011        2.85356
C          8.15797       -3.27467        1.58981
C          7.29213       -2.31063        0.76575
C          6.69095       -2.95905       -0.45426
O          6.24352       -4.08575       -0.53404
O          6.71161       -2.10266       -1.53374
C          6.03321       -2.55157       -2.72195
C          6.72355       -3.72042       -3.44978
P          8.54781       -3.60727       -3.52404
C          9.29010       -4.74718       -2.30464
C         10.77117       -5.11749       -2.51140
C         11.82017       -3.99524       -2.43534
C         12.03488       -3.38071       -1.03420
S         11.37800       -1.70954       -0.92949
O         12.19776       -0.80882       -1.70996
O          9.94626       -1.76873       -1.13938
O         11.58571       -1.37620        0.63985
C          9.16079       -3.89649       -5.21140
C          8.68501       -2.88083       -6.26663
C          8.96105       -1.39721       -5.97128
S         10.58813       -0.99022       -5.27319
C         11.62927       -0.88816       -6.75696
S         11.03745       -1.21772       -8.27633
N         12.89465       -0.50632       -6.48111
C         13.38726       -0.20773       -5.12716
C         14.11884       -1.38729       -4.48216
C         13.88038       -0.35619       -7.57019
C         13.87989        1.04643       -8.17827
H          9.32240       -3.33236        3.42995
H          7.90957       -2.26610        3.51010
H          9.35446       -1.75790        2.61105
H          7.56412       -4.16333        1.84688
H          8.99182       -3.63028        0.96069
H          7.85635       -1.42074        0.46001
H          6.44401       -1.95792        1.37887
H          5.99983       -1.66132       -3.36161
H          5.00664       -2.85636       -2.47349
H          6.35286       -3.77088       -4.48440
H          6.48606       -4.67120       -2.95469
H          8.92414       -2.30134       -3.14708
H          8.67291       -5.65812       -2.33066
H          9.10760       -4.27588       -1.32756
H         10.88298       -5.62744       -3.47985
H         11.00902       -5.88105       -1.75421
H         11.60646       -3.19884       -3.16738
H         12.77883       -4.42386       -2.75697
H         13.09984       -3.29016       -0.78568
H         11.54435       -3.95146       -0.23305
H         12.33161       -0.74996        0.72134
H          8.87402       -4.92103       -5.49430
H         10.25848       -3.86626       -5.14001
H          7.60645       -2.99926       -6.45817
H          9.19803       -3.13979       -7.20393
H          8.25601       -0.97607       -5.23764
H          8.86404       -0.82627       -6.90676
H         12.54566        0.11536       -4.49969
H         14.05724        0.66059       -5.21100
H         13.45819       -2.26056       -4.40827
H         14.44137       -1.11331       -3.46966
H         15.00691       -1.67836       -5.05877
H         13.64376       -1.10720       -8.33455
H         14.86436       -0.59662       -7.14281
H         12.91535        1.26386       -8.65330
H         14.66302        1.11596       -8.94493
H         14.08008        1.81854       -7.42271
