55

O          6.99564        2.77647       -4.66048
C          6.25299        1.64614       -5.15581
C          4.88024        1.68005       -4.51720
O          5.02875        1.57339       -3.09330
C          4.47630        2.59948       -2.28862
C          5.53905        3.04006       -1.28875
N          6.69808        3.72852       -1.96952
C          6.40510        5.17711       -2.26942
C          7.54527        5.78632       -3.07841
O          8.79679        5.61240       -2.42164
C          9.07908        4.22065       -2.20281
C          8.04925        3.59107       -1.23305
C          7.95115        4.08674        0.24782
C          8.07540        2.89002        1.20579
O          9.33757        2.26446        0.96688
C          8.91899        5.20450        0.67691
C         10.55564        4.04238       -1.82083
C         11.44755        3.77027       -3.04437
C         11.58230        4.97022       -4.00683
C         11.81534        4.58593       -5.47581
S         10.23439        4.24076       -6.28833
O          9.63091        3.03825       -5.71803
O          9.44220        5.44680       -6.36775
Cl        10.85754        3.74879       -8.19320
H          7.86012        2.82336       -5.12382
H          6.76694        0.70555       -4.89723
H          6.14739        1.70145       -6.25176
H          4.27543        0.83544       -4.88424
H          4.36221        2.61759       -4.78003
H          3.61053        2.22234       -1.71555
H          4.11669        3.44299       -2.90307
H          5.93987        2.14980       -0.78807
H          5.12065        3.71611       -0.53195
H          6.83015        3.24514       -2.90409
H          6.27681        5.69103       -1.30751
H          5.46309        5.22732       -2.82974
H          7.38135        6.86734       -3.17728
H          7.57360        5.34652       -4.09173
H          8.92626        3.69002       -3.16468
H          8.24488        2.50803       -1.23200
H          6.93339        4.48010        0.40280
H          7.25103        2.17042        1.04418
H          8.00151        3.25704        2.24381
H          9.47996        1.57574        1.63378
H          9.94536        4.83196        0.76397
H          8.61740        5.56862        1.66792
H          8.91068        6.05143       -0.01667
H         10.64732        3.20589       -1.11329
H         10.89319        4.94226       -1.28820
H         11.04053        2.90212       -3.58426
H         12.44741        3.47065       -2.69819
H         12.43686        5.59584       -3.70776
H         10.70669        5.63223       -3.94133
H         12.43016        3.68490       -5.60776
H         12.23795        5.40847       -6.06873
