67

C          0.94566        1.10367        0.49340
C          2.44033        0.81986        0.32424
C          2.99973       -0.13610        1.38330
C          4.49424       -0.43351        1.22348
C          5.04011       -1.38870        2.28913
C          6.53026       -1.71092        2.13665
C          7.05063       -2.66404        3.21688
C          8.53919       -3.00390        3.09054
C          9.03261       -3.93854        4.19992
C         10.53065       -4.25356        4.12674
C         11.00047       -5.16145        5.26862
C         12.51093       -5.41307        5.25923
C         12.94943       -6.30941        6.44396
C         14.42480       -6.44065        6.53864
N         15.21194       -7.36865        5.97156
C         14.82216       -8.56481        5.21859
C         14.74939       -9.78934        6.11930
F         13.74554       -9.59278        7.07506
N         16.53518       -7.15457        6.23399
C         16.54667       -6.06756        6.96399
N         15.27564       -5.58532        7.16388
C         14.91900       -4.42436        7.99845
C         14.80418       -4.81204        9.46929
O         16.05448       -5.32296        9.86512
C         16.07519       -5.79632       11.22807
C         17.43431       -6.40388       11.50385
H          0.57475        1.78856       -0.28142
H          0.73369        1.56240        1.47083
H          0.35359        0.17846        0.42908
H          3.00247        1.76854        0.35852
H          2.62406        0.39724       -0.67820
H          2.43452       -1.08456        1.35141
H          2.81763        0.28728        2.38719
H          5.06158        0.51345        1.25483
H          4.67639       -0.86072        0.22152
H          4.46196       -2.32929        2.26410
H          4.86364       -0.95535        3.28960
H          7.11344       -0.77353        2.16236
H          6.71022       -2.15122        1.14013
H          6.46149       -3.59763        3.19210
H          6.86562       -2.21920        4.21071
H          9.13072       -2.07159        3.10763
H          8.73068       -3.46611        2.10643
H          8.45865       -4.88086        4.16654
H          8.80833       -3.48371        5.18086
H         11.10337       -3.30990        4.15101
H         10.76452       -4.72710        3.15775
H         10.46651       -6.12583        5.22085
H         10.71862       -4.70648        6.23441
H         13.04946       -4.45194        5.30543
H         12.81661       -5.88699        4.31226
H         12.50513       -7.31064        6.36470
H         12.57447       -5.89025        7.38955
H         15.57845       -8.71100        4.43686
H         13.85446       -8.37136        4.74013
H         15.69807       -9.95821        6.64949
H         14.49448      -10.67638        5.52146
H         17.43671       -5.59960        7.37009
H         13.98199       -3.99643        7.62433
H         15.71226       -3.67877        7.86158
H         13.99998       -5.56275        9.61142
H         14.52011       -3.90789       10.04211
H         15.26940       -6.54207       11.36107
H         15.86819       -4.94965       11.90721
H         17.63155       -7.25068       10.83312
H         17.47508       -6.77264       12.53702
H         18.23266       -5.66097       11.37638
