86

C          1.62689        0.64487       -1.08655
C          2.85700        0.08230       -0.36939
C          3.16670        0.79182        0.95396
C          4.38290        0.21262        1.68390
C          4.71734        0.93888        2.99199
C          5.92196        0.32253        3.71567
C          6.27466        1.07905        4.99870
S          7.69095        0.20520        5.77349
C          8.04415        1.25324        7.09478
N          7.46501        2.36253        7.50188
N          8.18301        2.78311        8.61379
C          9.13554        1.91884        8.80495
O          9.12128        0.90341        7.88293
C         10.12755        1.89683        9.91150
C         11.49924        1.36230        9.48498
C         12.51061        1.24978       10.64151
C         13.02700        2.60159       11.17288
C         13.77925        3.45333       10.14424
C         14.42955        4.69410       10.76544
C         15.15447        5.57181        9.74259
C         15.81689        6.80205       10.36619
N         16.44081        7.62889        9.32836
C         11.89144        0.37914       11.75036
C         10.54457        0.90934       12.22265
N          9.57377        1.02693       11.06814
C          8.18859        1.39999       11.50931
C          7.31792        0.17142       11.22606
O          7.80061       -0.81451       10.68224
O          6.07653        0.33776       11.62536
C          5.13611       -0.78530       11.38788
C          3.84010       -0.45347       12.09543
C          2.78642       -1.55152       11.89420
C          1.47453       -1.24695       12.62641
C          0.40492       -2.32949       12.44611
C         -0.89563       -2.01480       13.18905
H          1.43848        0.11804       -2.03189
H          1.75323        1.71234       -1.32075
H          0.72295        0.54722       -0.46678
H          3.73587        0.15438       -1.03231
H          2.71157       -0.99450       -0.17803
H          2.28300        0.73503        1.61413
H          3.33136        1.86652        0.76117
H          5.26072        0.24674        1.01520
H          4.20531       -0.85625        1.89535
H          3.83898        0.92008        3.65980
H          4.91934        2.00290        2.78083
H          6.79408        0.31758        3.04147
H          5.70427       -0.73223        3.95363
H          5.44301        1.08823        5.71561
H          6.58127        2.11399        4.79861
H         10.18856        2.91603       10.31883
H         11.87312        2.02608        8.69360
H         11.36129        0.37650        9.01386
H         13.38042        0.70332       10.24319
H         13.70125        2.38859       12.01933
H         12.20618        3.20483       11.60090
H         13.09775        3.77595        9.33844
H         14.55546        2.83731        9.65747
H         15.13659        4.37583       11.55110
H         13.65639        5.29319       11.27843
H         14.45320        5.91183        8.96344
H         15.92340        4.97143        9.22369
H         16.51486        6.47179       11.16407
H         15.04771        7.41685       10.86172
H         17.25008        7.15224        8.92675
H         16.78878        8.50223        9.72420
H         12.55723        0.33048       12.62418
H         11.76781       -0.65770       11.39647
H         10.62144        1.90759       12.67582
H         10.07502        0.23392       12.95041
H          9.41292        0.05971       10.68020
H          7.82249        2.26192       10.93403
H          8.18638        1.65272       12.57579
H          5.60933       -1.70101       11.76829
H          5.01532       -0.87835       10.29908
H          3.45644        0.50761       11.71826
H          4.03909       -0.31896       13.17037
H          3.18572       -2.51788       12.24821
H          2.58526       -1.68003       10.81656
H          1.07753       -0.27842       12.27546
H          1.68197       -1.11667       13.70288
H          0.80530       -3.29628       12.79514
H          0.19530       -2.46025       11.37083
H         -0.72234       -1.90607       14.27004
H         -1.63885       -2.81177       13.05174
H         -1.34470       -1.07699       12.83050
