68

F          5.34027        1.87235        3.59572
C          5.58627        2.68852        2.47800
C          5.31234        1.88083        1.21704
C          5.49441        2.75897       -0.03864
C          5.45040        1.99467       -1.31506
N          6.51393        1.78230       -2.07203
N          6.07297        1.03280       -3.11627
C          4.77217        0.78495       -3.01456
N          4.34145        1.37821       -1.88344
C          2.94679        1.37770       -1.39510
C          2.28425        2.74847       -1.53778
C          0.98811        2.88749       -0.72613
S          1.02105        2.30990        1.00377
C          1.86329        3.63872        1.87228
S          2.60913        4.92239        1.11566
N          1.79756        3.46671        3.22149
C          1.16513        2.30445        3.81319
C         -0.12079        2.42983        4.35039
C         -0.72500        1.32194        4.94344
C         -0.04757        0.09983        5.00389
C          1.24249       -0.01342        4.47909
C          1.85832        1.09087        3.88611
C          2.26174        4.47262        4.15455
C          3.27808        4.14592        5.05677
C          3.68509        5.09148        6.00102
C          3.07498        6.34740        6.04806
C          2.05029        6.65956        5.14882
C          1.63801        5.72369        4.20036
C          7.01956        0.60733       -4.17959
C          6.37608       -0.34073       -5.15442
C          6.37037       -1.71838       -4.89686
C          5.74928       -2.58524       -5.79840
C          5.14095       -2.08323       -6.94997
C          5.14224       -0.70645       -7.23346
C          5.76387        0.15233       -6.31636
C          4.52549       -0.17608       -8.50092
H          6.63671        3.01449        2.53404
H          4.92754        3.56763        2.55052
H          4.28292        1.49726        1.27439
H          5.99177        1.01600        1.18302
H          6.47714        3.25032       -0.02129
H          4.72964        3.55405       -0.03638
H          4.17547        0.20605       -3.71080
H          2.96280        1.07526       -0.33929
H          2.41530        0.59471       -1.95177
H          2.06243        2.95303       -2.59685
H          2.96972        3.53219       -1.19074
H          0.17396        2.28385       -1.15544
H          0.67484        3.93994       -0.72596
H         -0.63631        3.38910        4.29809
H         -1.72798        1.41447        5.36031
H         -0.52488       -0.76297        5.46882
H          1.77858       -0.96074        4.54203
H          2.87455        1.02358        3.49776
H          3.74642        3.16273        5.02230
H          4.47807        4.83937        6.70576
H          3.39066        7.08106        6.79037
H          1.56343        7.63444        5.18825
H          0.84025        5.96014        3.49700
H          7.86919        0.15099       -3.65476
H          7.37305        1.52722       -4.66532
H          6.86108       -2.11326       -4.00469
H          5.75029       -3.65894       -5.60792
H          4.66605       -2.77267       -7.65079
H          5.78458        1.22646       -6.52139
H          5.16436       -0.40508       -9.36730
H          4.39353        0.91249       -8.46587
H          3.54703       -0.63676       -8.69359
