45

C          7.33293        1.68669       -1.28656
C          6.36823        2.67242       -0.62166
C          6.91486        3.22340        0.69996
C          6.01861        4.24538        1.41084
N          4.68018        3.72921        1.77810
C          4.59197        2.97630        2.90524
O          5.56352        2.65703        3.59154
C          3.18978        2.51294        3.37893
N          2.31919        3.61202        3.83453
C          1.01556        3.86645        3.37340
C          0.30351        3.01450        2.43043
C         -0.58785        3.47522        1.54064
C          0.59436        4.99454        4.03289
N          1.62694        5.38789        4.85488
C          2.67816        4.55015        4.74376
C          3.97217        4.66943        5.46442
C          3.87295        5.33471        6.84622
C          5.23433        5.47381        7.51463
Br         6.41392        6.68632        6.51278
C          3.54916        4.10695        0.93477
H          6.92323        1.29930       -2.22868
H          7.53574        0.82647       -0.63213
H          8.29703        2.16396       -1.51379
H          5.40442        2.16516       -0.44373
H          6.15791        3.50633       -1.31400
H          7.88091        3.72305        0.51878
H          7.12586        2.39605        1.39430
H          5.85114        5.12845        0.77702
H          6.50858        4.57654        2.33688
H          3.36721        1.82522        4.21396
H          2.64949        1.97156        2.59448
H          0.49029        1.93969        2.49894
H         -0.79291        4.54037        1.42215
H         -1.14216        2.79060        0.90068
H         -0.35976        5.50574        4.01062
H          1.60777        6.18498        5.48424
H          4.67617        5.25044        4.83959
H          4.42902        3.67220        5.54686
H          3.22972        4.73169        7.50889
H          3.42179        6.33820        6.77550
H          5.77159        4.52095        7.57687
H          5.14649        5.91085        8.51342
H          3.12190        5.07987        1.22976
H          2.75514        3.35270        0.95797
H          3.88833        4.18553       -0.10332
