59

C          1.74840        4.13977       -6.94291
C          3.24591        4.22271       -6.63736
C          3.57400        4.05447       -5.14904
C          5.07387        4.13309       -4.84513
C          5.41507        3.93996       -3.36353
C          6.91931        4.02862       -3.07764
C          7.26862        3.81508       -1.59845
C          8.76652        3.86223       -1.28881
N          9.30905        5.20315       -1.55771
C         10.51947        5.62780       -1.20638
N         10.95063        6.90241       -1.38552
C         12.32214        7.03291       -0.86683
C         12.52462        5.73340       -0.01659
N         11.47882        4.87903       -0.64772
Si        12.25076        5.71985        1.91867
C         12.39053        3.89741        2.37837
C         13.58159        6.72482        2.77897
C         10.52171        6.36834        2.27562
C         12.43836        8.37522       -0.13940
O         11.46445        9.05185        0.13822
O         13.71419        8.67285        0.09932
C         13.98770        9.95585        0.77509
C         14.13890       11.07694       -0.23377
H          1.55121        4.26422       -8.01618
H          1.18688        4.92149       -6.41009
H          1.33092        3.16833       -6.63954
H          3.64051        5.19171       -6.98778
H          3.78342        3.45182       -7.21511
H          3.17968        3.08509       -4.79683
H          3.04023        4.82651       -4.56726
H          5.46243        5.10973       -5.18491
H          5.60644        3.37225       -5.44218
H          5.04008        2.95917       -3.02416
H          4.88192        4.69417       -2.75921
H          7.27694        5.01525       -3.42931
H          7.45642        3.28296       -3.68875
H          6.90557        2.82695       -1.27736
H          6.74523        4.55184       -0.96640
H          9.30405        3.11689       -1.90024
H          8.93922        3.62827       -0.22605
H          8.76126        5.81350       -2.15807
H         10.32924        7.69074       -1.19189
H         13.03484        7.04575       -1.70720
H         13.51423        5.31299       -0.24204
H         11.34023        3.90630       -0.39809
H         13.36174        3.47320        2.08725
H         11.59611        3.27732        1.93740
H         12.30065        3.78928        3.46872
H         14.57212        6.56371        2.33248
H         13.63766        6.42062        3.83396
H         13.36454        7.79946        2.75819
H          9.74538        5.78162        1.76322
H         10.40887        7.42110        1.98550
H         10.31889        6.29571        3.35388
H         14.91790        9.75992        1.32051
H         13.17306       10.14740        1.48488
H         14.92740       10.85196       -0.96309
H         14.41949       11.99798        0.29556
H         13.19831       11.26858       -0.76522
