55

C          0.89362       -0.08460       -0.19251
C          2.42191       -0.05279       -0.12474
C          2.96239        0.87953        0.96415
C          4.49205        0.91675        1.03099
C          5.04221        1.85020        2.11350
C          6.57279        1.88989        2.16120
C          7.13357        2.82487        3.23708
C          8.66471        2.86455        3.26648
C          9.23618        3.79227        4.34298
C         10.76831        3.82669        4.35682
C         11.34503        4.74679        5.43788
C         12.87663        4.76554        5.43660
C         13.44285        5.68394        6.54983
C         14.92284        5.69524        6.57402
N         15.70458        4.94149        7.31887
N         16.98094        5.25932        6.95975
C         17.02121        6.18727        6.01724
N         15.72510        6.49776        5.73577
C         15.29710        7.41923        4.83712
C         14.88350        8.23199        4.04838
C         18.11458        4.57439        7.62833
C         19.39328        5.03482        7.12694
C         20.47356        5.40038        6.72902
H          0.53898       -0.76031       -0.98286
H          0.48340        0.91491       -0.40020
H          0.45989       -0.42813        0.75843
H          2.82807        0.25987       -1.10160
H          2.80514       -1.07238        0.04971
H          2.56014        0.56681        1.94396
H          2.57879        1.90076        0.79207
H          4.89041        1.22592        0.04848
H          4.87352       -0.10508        1.20344
H          4.65366        1.53727        3.09851
H          4.65607        2.87103        1.94601
H          6.95856        2.19953        1.17390
H          6.95843        0.86902        2.32966
H          6.75695        2.51167        4.22650
H          6.74490        3.84526        3.07345
H          9.03904        3.18097        2.27702
H          9.05224        1.84281        3.42436
H          8.86951        3.47291        5.33389
H          8.84891        4.81458        4.18965
H         11.13470        4.15081        3.36716
H         11.15456        2.80354        4.50569
H         10.98537        4.42155        6.42883
H         10.96460        5.77241        5.29278
H         13.24423        5.10625        4.45487
H         13.26540        3.74628        5.58782
H         13.10224        5.33624        7.53475
H         13.07709        6.71337        6.41187
H         17.90571        6.61979        5.56182
H         14.52715        8.95728        3.34346
H         17.97279        3.49526        7.46088
H         18.00437        4.76394        8.70742
H         21.44075        5.71259        6.38700
