117

C          0.06868       -0.45920        0.88309
C          1.58831       -0.37250        0.72171
C          2.04093        0.78063       -0.18074
C          3.55968        0.86332       -0.36030
C          4.01440        1.99808       -1.28395
C          5.53172        2.04918       -1.48696
C          5.99749        3.14494       -2.45146
C          7.51217        3.14399       -2.68060
C          7.99765        4.18544       -3.69452
C          9.50990        4.12787       -3.93282
C         10.02753        5.12069       -4.97910
C         11.53299        4.98666       -5.23100
C         12.09514        5.96408       -6.26870
C         13.58825        5.74878       -6.53931
C         14.19940        6.73523       -7.54008
C         15.67138        6.43898       -7.84767
C         16.34633        7.48089       -8.74673
C         17.79939        7.12682       -9.08461
C         18.54422        8.23862       -9.82890
C         19.99931        7.85119      -10.17869
C         20.81796        9.02496      -10.64761
C         21.01521        9.26707      -12.01396
C         21.74299       10.36993      -12.49320
C         22.28593       11.22340      -11.54752
N         22.08630       10.98435      -10.23542
C         21.38449        9.93536       -9.73837
C         21.28346        9.88543       -8.23991
C         22.62748        9.99933       -7.48446
O         23.21701       11.27536       -7.85620
C         24.67440       11.29336       -7.93459
C         25.36853       11.10364       -6.61324
C         26.02496        9.89918       -6.32641
C         26.62037        9.69601       -5.07895
C         26.56478       10.70115       -4.11038
C         25.92525       11.91330       -4.39422
C         25.33280       12.11482       -5.64055
C         22.39525        9.89064       -5.97980
C         22.01203       10.57274      -13.95539
C         22.97002        9.46016      -14.46479
O         23.11849        8.43700      -13.79049
N         23.59295        9.67603      -15.65424
C         23.40270       10.86311      -16.49537
C         24.46138       11.95411      -16.28846
C         24.29950       13.11908      -17.27123
C         25.34312       14.22106      -17.07613
C         24.51693        8.65930      -16.15786
H         -0.22177       -1.29575        1.53379
H         -0.42796       -0.60632       -0.08781
H         -0.33985        0.46211        1.32477
H          1.96970       -1.32322        0.31148
H          2.05927       -0.26354        1.71357
H          1.66755        1.73460        0.23225
H          1.56258        0.67514       -1.17085
H          3.93001       -0.09769       -0.75969
H          4.03905        0.98134        0.62770
H          3.66394        2.96402       -0.87943
H          3.52052        1.88646       -2.26554
H          5.87786        1.06969       -1.86239
H          6.02746        2.18671       -0.50966
H          5.68152        4.13199       -2.07033
H          5.48315        3.01756       -3.42051
H          7.82274        2.14036       -3.02173
H          8.02759        3.30452       -1.71711
H          7.71409        5.19635       -3.35253
H          7.47132        4.03247       -4.65330
H          9.78432        3.10412       -4.24383
H         10.03600        4.30024       -2.97718
H          9.79523        6.15149       -4.65838
H          9.48335        4.96955       -5.92803
H         11.75095        3.95330       -5.55443
H         12.07415        5.12116       -4.27766
H         11.92605        7.00091       -5.92848
H         11.53388        5.86060       -7.21397
H         13.74187        4.71812       -6.90493
H         14.14287        5.81347       -5.58638
H         14.10439        7.76231       -7.14571
H         13.61893        6.71712       -8.47899
H         15.74984        5.44316       -8.31785
H         16.23310        6.36763       -6.89934
H         16.31553        8.46504       -8.24647
H         15.76983        7.59765       -9.68058
H         17.82403        6.19904       -9.68143
H         18.34360        6.89794       -8.15080
H         18.54166        9.15194       -9.20974
H         18.01231        8.50576      -10.75683
H         20.00113        7.07966      -10.96170
H         20.47561        7.39042       -9.29912
H         20.59210        8.56521      -12.73372
H         22.89163       12.09421      -11.79471
H         22.56732       11.53599       -9.49211
H         20.79303        8.95547       -7.93325
H         20.62986       10.70723       -7.89972
H         23.30301        9.19439       -7.82868
H         24.89715       12.28387       -8.35682
H         25.00309       10.52075       -8.65218
H         26.06840        9.11385       -7.08467
H         27.12928        8.75592       -4.86407
H         27.02826       10.54471       -3.13574
H         25.89475       12.70298       -3.64285
H         24.82937       13.05900       -5.85862
H         21.76340       10.71933       -5.63178
H         23.33891        9.92051       -5.42671
H         21.89135        8.94344       -5.74114
H         22.42234       11.57520      -14.13210
H         21.07244       10.50677      -14.52757
H         22.39460       11.26984      -16.33667
H         23.42301       10.52024      -17.54182
H         25.46573       11.51409      -16.39976
H         24.40751       12.32621      -15.25040
H         23.28714       13.54629      -17.17040
H         24.36104       12.73107      -18.30162
H         25.27813       14.66303      -16.07081
H         25.20484       15.03186      -17.80330
H         26.36398       13.83258      -17.20283
H         24.66580        7.90389      -15.38137
H         25.48216        9.11794      -16.41299
H         24.10511        8.17819      -17.05771
