55

C          0.02256        2.94404       -5.07548
C          1.52515        2.99277       -5.36056
C          2.36992        3.19506       -4.09826
C          3.87439        3.27486       -4.37716
C          4.71982        3.44078       -3.11025
C          6.22352        3.54527       -3.39261
C          7.05750        3.70993       -2.11652
C          8.58521        3.65700       -2.32418
P          9.27387        4.95283       -3.39911
C          8.80162        6.63693       -2.86402
C          9.29595        7.67862       -3.83548
C          8.51969        8.25262       -4.75836
C         11.07769        4.79497       -3.57582
C         11.57795        3.41808       -4.05998
C         11.12215        3.02444       -5.47856
C         11.71837        1.70360       -5.91673
C         11.03813        0.49948       -5.68302
C         11.60484       -0.72386       -6.04997
C         12.86255       -0.75708       -6.65844
C         13.54705        0.43713       -6.90139
C         12.97782        1.65871       -6.53278
H         -0.55551        2.79058       -5.99641
H         -0.32605        3.88069       -4.61595
H         -0.22633        2.12411       -4.38588
H          1.73924        3.80577       -6.07482
H          1.83786        2.05999       -5.85919
H          2.17206        2.36955       -3.39257
H          2.04438        4.11706       -3.58541
H          4.07211        4.11731       -5.06351
H          4.19530        2.36427       -4.91252
H          4.53946        2.58765       -2.43434
H          4.38800        4.33938       -2.56176
H          6.39361        4.39494       -4.07927
H          6.55670        2.64325       -3.93522
H          6.81296        2.89679       -1.41571
H          6.78093        4.64097       -1.59655
H          8.88649        2.69943       -2.77976
H          9.12394        3.73706       -1.36584
H          8.70618        4.81014       -4.68333
H          9.20481        6.78449       -1.84939
H          7.70326        6.64090       -2.79403
H         10.34695        7.96538       -3.74874
H          7.46031        8.00658       -4.86049
H          8.91575        9.00783       -5.43634
H         11.50350        5.04442       -2.59035
H         11.38241        5.59287       -4.27219
H         11.29244        2.63360       -3.34282
H         12.67710        3.45565       -4.03564
H         11.41081        3.81937       -6.18553
H         10.02205        2.94814       -5.52152
H         10.04655        0.51685       -5.22225
H         11.06045       -1.65126       -5.86808
H         13.30420       -1.71029       -6.95046
H         14.52377        0.41880       -7.38623
H         13.51579        2.58764       -6.73786
