73

C          2.99695       -0.11616       -1.56542
C          1.77211       -0.19873       -0.69164
C          1.63780       -1.17555        0.29872
C          0.50309       -1.21160        1.11120
C         -0.54853       -0.29797        0.97991
C         -0.40372        0.66945       -0.03499
C          0.72854        0.72815       -0.84694
O         -1.47582        1.55054       -0.19770
C         -1.32213        2.66817       -1.06029
C         -2.71108        3.30893       -1.08223
N         -3.19233        3.49414        0.32672
C         -2.73133        4.86664        0.73069
O         -2.44537        5.53881       -0.47209
C         -2.87873        4.75103       -1.62378
C         -1.98412        5.13638       -2.81792
C         -0.52169        5.49249       -2.54456
O          0.06522        5.63338       -3.83342
C          1.45688        5.86527       -3.81800
C          2.08464        5.29676       -5.09478
C          2.32921        3.74382       -5.16555
C          1.14264        2.71387       -5.11649
C          0.09357        2.76819       -6.26831
F         -0.65074        1.62564       -6.20050
F         -0.74709        3.82381       -6.08873
F          1.72445        1.48358       -5.16680
F          0.50157        2.81032       -3.90746
F          2.99090        3.49137       -6.33027
F          3.14945        3.42183       -4.12044
F          1.36849        5.66339       -6.19776
F          3.33392        5.84889       -5.20533
C         -4.35170        5.14340       -2.01886
C         -5.65769        4.35390       -1.66429
N         -5.87981        3.09792       -2.38749
N         -5.71509        3.96841       -0.21541
N         -6.74771        5.27867       -1.92522
C         -1.73917       -0.38242        1.92640
C         -1.78394        0.79904        2.91507
C         -3.09169       -0.61225        1.22616
H          3.54530       -1.06602       -1.57434
H          3.68816        0.65979       -1.20117
H          2.73755        0.14022       -2.60190
H          2.42528       -1.91722        0.43947
H          0.42366       -1.98140        1.88178
H          0.81796        1.48343       -1.62746
H         -1.04714        2.36746       -2.08241
H         -0.54548        3.34623       -0.66870
H         -3.38935        2.60027       -1.57213
H         -2.82722        2.73403        0.92097
H         -4.32064        3.53893        0.26014
H         -1.83007        4.80814        1.35810
H         -3.54793        5.35270        1.29065
H         -2.43098        6.00949       -3.31366
H         -2.01985        4.32266       -3.55919
H          0.01800        4.71514       -1.97799
H         -0.45294        6.43186       -1.96903
H          1.95094        5.39343       -2.95100
H          1.69235        6.94450       -3.80730
H          0.57147        2.83560       -7.25766
H         -4.37720        5.21513       -3.11546
H         -4.46748        6.17126       -1.64215
H         -5.16061        2.38943       -2.23805
H         -5.94703        3.26457       -3.39142
H         -6.44446        3.25389       -0.12366
H         -6.04686        4.79005        0.29844
H         -6.58601        5.85761       -2.74891
H         -7.62264        4.76765       -2.05948
H         -1.55494       -1.28092        2.53749
H         -1.91947        1.76555        2.40155
H         -0.84772        0.87433        3.48335
H         -2.61026        0.68085        3.63021
H         -3.41096        0.26036        0.63873
H         -3.87319       -0.82552        1.96906
H         -3.03771       -1.46679        0.53887
