71

C          4.74330       -2.07534        3.18129
C          5.84849       -1.26876        2.49557
C          6.45277       -1.98286        1.28157
C          7.50975       -1.16369        0.53376
C          8.06330       -1.88383       -0.69964
C          9.04446       -1.03671       -1.52110
C          9.63003       -1.75568       -2.74830
C          8.56556       -2.12777       -3.78822
C          9.08173       -2.75781       -5.09942
C          7.92570       -3.13190       -6.04919
C          7.09915       -4.29982       -5.49181
C          7.91586       -5.57713       -5.18919
N          9.16571       -5.16695       -4.39147
C          9.95624       -3.99703       -4.90019
C          7.10623       -6.49991       -4.23810
C          6.77884       -5.84276       -2.89581
O          7.64973       -5.19380       -2.27487
N          5.54064       -6.02454       -2.40919
C          5.08592       -5.46751       -1.12851
C          4.24810       -4.19392       -1.29025
C          2.93936       -4.37830       -2.06704
C          2.10372       -3.09740       -2.12847
C          8.38666       -6.32558       -6.48234
C          9.07013       -7.67716       -6.22338
O         10.13998       -7.51832       -5.26972
C          7.26197       -6.55739       -7.50451
H          4.31419       -1.53015        4.03258
H          5.12330       -3.03588        3.56138
H          3.92018       -2.29772        2.48411
H          6.64744       -1.04229        3.22122
H          5.44680       -0.29245        2.17560
H          5.64007       -2.23970        0.57903
H          6.89112       -2.94558        1.60210
H          8.33710       -0.90872        1.21830
H          7.06687       -0.20069        0.22423
H          7.21256       -2.19350       -1.33071
H          8.55751       -2.82201       -0.39114
H          9.87485       -0.71494       -0.87230
H          8.54262       -0.11005       -1.85012
H         10.15610       -2.66146       -2.39825
H         10.39667       -1.11552       -3.21542
H          8.00455       -1.21911       -4.06389
H          7.83093       -2.79448       -3.31295
H          9.72482       -2.01864       -5.60461
H          8.32532       -3.38002       -7.04568
H          7.26417       -2.26586       -6.19168
H          6.28620       -4.56304       -6.17981
H          6.60507       -3.97462       -4.56479
H          9.77559       -6.00692       -4.37252
H          8.79143       -5.00995       -3.40024
H         10.42981       -4.29741       -5.84456
H         10.75710       -3.83015       -4.16858
H          7.67985       -7.41171       -4.00806
H          6.19051       -6.81978       -4.75345
H          4.87470       -6.54197       -2.97314
H          5.98603       -5.26125       -0.53671
H          4.50826       -6.25007       -0.61436
H          4.86827       -3.41702       -1.76804
H          4.02520       -3.82404       -0.27633
H          2.34783       -5.18311       -1.59802
H          3.15635       -4.71538       -3.09596
H          1.83013       -2.75393       -1.12059
H          1.17378       -3.25104       -2.69077
H          2.65768       -2.28192       -2.61640
H          9.13711       -5.67860       -6.96521
H          9.47168       -8.04874       -7.17917
H          8.33966       -8.42042       -5.85752
H         10.60195       -8.36224       -5.14972
H          6.41269       -7.10854       -7.07585
H          7.64025       -7.15141       -8.34696
H          6.88445       -5.61769       -7.92219
