47

C          6.21159       -1.66166       -0.17821
C          5.63185       -0.63714        0.77429
O          5.54093        0.69290        0.13108
C          4.44804        0.93851       -0.58279
O          3.49621        0.20162       -0.75869
C          4.51131        2.32879       -1.28476
O          5.21777        3.34193       -0.62900
C          4.50573        3.86223        0.50889
C          5.35796        4.91639        1.18991
C          6.51189        4.39213        2.07451
C          7.58510        3.58485        1.33678
O          8.24681        4.38477        0.35064
O          7.10171        5.50831        2.73093
N          3.25020        4.44359        0.02235
C          2.57723        3.81409       -0.94081
N          1.35717        4.23677       -1.33096
C          0.47369        5.13654       -0.57803
C          0.84812        6.62861       -0.65455
C         -0.25700        7.54290       -0.05597
N         -0.03515        7.65531        1.39268
O          2.05620        6.88648        0.06883
N          3.12562        2.74476       -1.55793
H          6.33785       -2.61185        0.35873
H          7.19611       -1.34839       -0.54804
H          5.54312       -1.84217       -1.02886
H          6.28596       -0.45335        1.63405
H          4.62775       -0.91241        1.11960
H          5.03225        2.17907       -2.24571
H          4.26928        3.02424        1.19145
H          4.71012        5.51853        1.84384
H          5.75567        5.59644        0.41976
H          6.08939        3.75349        2.87051
H          7.16875        2.66488        0.89925
H          8.35501        3.30441        2.06960
H          7.73609        4.33665       -0.47232
H          7.76722        5.87145        2.11832
H          2.97909        5.43762        0.20930
H          1.01553        3.86944       -2.21234
H          0.45142        4.80983        0.47404
H         -0.53236        4.99055       -0.99469
H          1.01541        6.89879       -1.70879
H         -1.25950        7.17685       -0.32828
H         -0.14045        8.53989       -0.49828
H         -0.59592        6.99789        1.93276
H         -0.24366        8.58932        1.73847
H          1.69648        7.23975        0.93609
H          2.51529        1.98280       -1.85157
