47

C          0.71940        1.44937       -0.17634
O          2.15060        1.24295       -0.02343
C          2.75051        0.58365       -1.03123
O          2.18862        0.18441       -2.03170
C          4.23198        0.38171       -0.72380
C          5.17247        0.94327       -1.79530
C          6.63456        0.91752       -1.29114
N          7.25087        2.10785       -1.97221
C          6.00185        3.02801       -2.42599
O          4.93372        2.38769       -1.84073
C          6.18947        4.43520       -1.94438
C          5.86286        4.79853       -0.63210
C          6.11329        6.11467       -0.23489
N          6.65146        7.04336       -1.03919
C          6.95153        6.68490       -2.29454
C          6.73957        5.39694       -2.79754
C          5.01322        0.31523       -3.20691
C          5.48229       -1.11926       -3.29663
C          4.62594       -2.17940       -2.97168
C          5.09645       -3.49436       -3.02623
C          6.41137       -3.76213       -3.40516
C          7.28582       -2.72083       -3.75832
C          6.79692       -1.40922       -3.69798
C          8.69276       -3.01254       -4.21157
H          0.39255        1.89556        0.76667
H          0.21545        0.49195       -0.35415
H          0.52577        2.12727       -1.01668
H          4.40863       -0.70170       -0.64114
H          4.46488        0.84216        0.24414
H          7.17172        0.00233       -1.56582
H          6.68321        1.08418       -0.21008
H          7.80184        1.83656       -2.79475
H          7.85766        2.65048       -1.34696
H          6.02346        2.96077       -3.52711
H          5.39913        4.08734        0.05195
H          5.86460        6.44158        0.77786
H          7.37612        7.46441       -2.93209
H          6.98510        5.16405       -3.83596
H          5.57926        0.91628       -3.93714
H          3.95288        0.39913       -3.47594
H          3.58799       -1.97495       -2.70373
H          4.42476       -4.31759       -2.78075
H          6.76318       -4.79462       -3.44871
H          7.45604       -0.59289       -4.01848
H          8.69254       -3.58884       -5.14826
H          9.23482       -3.61273       -3.46708
H          9.26359       -2.09165       -4.38760
