65

C         17.01077       -2.71714       -0.94736
C         16.00687       -2.33677       -2.03779
C         14.55184       -2.57840       -1.62274
C         13.53203       -2.19644       -2.70134
C         12.08243       -2.37766       -2.23984
C         11.03974       -1.98873       -3.29707
C          9.60397       -2.08361       -2.76103
C          8.52364       -1.61575       -3.72979
N          8.43679       -2.47135       -4.97814
C          7.50314       -1.91625       -6.05787
C          6.57914       -3.08018       -6.45714
C          7.33904       -4.37096       -6.03291
C          8.00463       -3.91432       -4.73070
C          8.30530       -5.01469       -7.05225
C          9.54755       -4.20104       -7.43897
C         10.44578       -4.93122       -8.44257
S         11.91148       -3.92318       -8.73875
O         11.52896       -2.75003       -9.49887
O         12.61553       -3.80621       -7.48434
O         12.78096       -4.89410       -9.69344
C          6.07999       -2.98386       -7.90506
C          4.99838       -4.00965       -8.23968
O          3.97274       -3.89131       -7.26050
C          2.87838       -4.75957       -7.47709
C          1.98696       -4.70573       -6.24088
F          1.53962       -3.45485       -5.99023
F          0.91450       -5.51103       -6.41803
F          2.64970       -5.13071       -5.13158
H         18.04331       -2.52591       -1.26847
H         16.93483       -3.78381       -0.68952
H         16.83658       -2.14093       -0.02661
H         16.22340       -2.90743       -2.95638
H         16.13475       -1.27387       -2.30291
H         14.33937       -2.00580       -0.70275
H         14.42047       -3.64148       -1.35479
H         13.71208       -2.79772       -3.60928
H         13.69004       -1.14427       -2.99551
H         11.91147       -1.76907       -1.33532
H         11.91936       -3.42614       -1.93607
H         11.18313       -2.63934       -4.18199
H         11.23336       -0.95764       -3.63995
H          9.51078       -1.44011       -1.87220
H          9.38706       -3.10408       -2.40641
H          8.72916       -0.59365       -4.07898
H          7.52137       -1.63561       -3.27978
H          9.38580       -2.50379       -5.37468
H          8.13087       -1.55425       -6.88227
H          6.96089       -1.06392       -5.63291
H          5.68767       -3.02794       -5.81349
H          6.59426       -5.13836       -5.77609
H          8.88019       -4.49937       -4.42473
H          7.28571       -3.88609       -3.90160
H          7.73601       -5.26548       -7.96035
H          8.63254       -5.97970       -6.63262
H         10.16826       -4.00048       -6.54824
H          9.26555       -3.23189       -7.87896
H          9.95432       -5.08301       -9.41304
H         10.80169       -5.89727       -8.05875
H         12.80568       -4.49484      -10.58528
H          6.90814       -3.09402       -8.62244
H          5.65946       -1.97875       -8.06344
H          5.40130       -5.04226       -8.23805
H          4.60036       -3.81248       -9.25195
H          3.20126       -5.80766       -7.61161
H          2.27563       -4.45565       -8.35159
