42

C          0.74271        4.15073        0.96950
C          2.26954        4.09435        1.04980
C          2.78359        2.93970        1.91749
C          4.31413        2.87164        1.99118
C          4.78965        1.75248        2.91187
O          6.21866        1.54421        2.90239
C          6.95658        2.58382        3.51730
C          8.42725        2.14488        3.64194
O          9.10693        2.10484        2.40935
C          8.72044        1.04219        1.50334
N          9.53449        1.00057        0.35871
N          8.90109       -0.22476        2.23989
C          8.71910       -0.31746        3.56517
N          8.76940       -1.51564        4.17604
N          8.52739        0.79789        4.26554
N          9.12247        3.13981        4.47739
N          8.67830        2.93263        5.84624
N         10.53769        3.10328        4.42059
H          0.40597        4.99418        0.35248
H          0.29410        4.26982        1.96680
H          0.33031        3.23133        0.52867
H          2.65443        5.04662        1.45207
H          2.69127        4.00178        0.03481
H          2.39286        1.98483        1.52494
H          2.37013        3.04054        2.93617
H          4.70064        3.84356        2.34040
H          4.73216        2.70677        0.98382
H          4.37197        0.78707        2.59238
H          4.46361        1.93467        3.95325
H          6.55982        2.80849        4.52302
H          6.96429        3.51510        2.92514
H          7.66377        1.16561        1.22647
H         10.52774        1.10673        0.56541
H          9.24576        1.66261       -0.35674
H          9.06881       -1.05045        1.67420
H          8.90173       -2.37046        3.65110
H          8.70349       -1.59038        5.18297
H          8.28286        0.79248        5.25615
H          8.31962        3.83287        6.17451
H          9.53533        2.77058        6.38564
H         10.84869        3.78994        3.73381
H         10.88592        2.18323        4.12968
