89

C         15.51700        8.15541       -1.43206
C         14.71025        6.86590       -1.26540
C         15.15943        5.74430       -2.20771
C         14.35911        4.44865       -2.04497
C         14.81243        3.32264       -2.97973
C         14.01402        2.02653       -2.80858
C         14.46606        0.89656       -3.73937
C         13.67010       -0.39984       -3.55724
C         14.11847       -1.53186       -4.48753
C         13.32851       -2.83002       -4.29262
C         13.77325       -3.96409       -5.22391
C         12.98728       -5.26171       -4.99756
C         13.30950       -6.40318       -5.97513
C         14.75122       -6.90143       -5.82673
N         15.01506       -8.07695       -6.69935
C         15.57732       -7.92883       -7.90592
C         15.77296       -9.04715       -8.73508
C         16.38103       -8.89321      -10.09810
C         15.65309       -7.83949      -10.94918
O         14.97758       -6.94323      -10.47550
O         15.89371       -8.04916      -12.24348
C         15.32178       -7.08037      -13.19706
C         16.26583       -5.91345      -13.43391
C         15.70795       -4.94606      -14.48671
C         16.62843       -3.74674      -14.73991
C         16.06930       -2.77250      -15.77853
C         15.36338      -10.26909       -8.22434
C         14.78787      -10.33103       -6.93464
N         14.60894       -9.24129       -6.19095
C         14.39037      -11.65586       -6.31985
C         15.68609      -12.49010       -6.13832
O         16.72545      -12.24358       -6.72516
O         15.49179      -13.50399       -5.29301
C         16.63576      -14.40171       -5.05580
C         16.67912      -15.51638       -6.08163
C         13.52475      -11.55002       -5.06061
H         15.17216        8.93938       -0.74391
H         15.43056        8.54943       -2.45571
H         16.58568        7.98468       -1.23361
H         13.64059        7.07491       -1.43580
H         14.78731        6.51433       -0.22263
H         16.23074        5.53557       -2.03849
H         15.08125        6.09409       -3.25240
H         13.28879        4.65755       -2.21881
H         14.43350        4.10442       -0.99831
H         15.88361        3.11622       -2.80790
H         14.73426        3.66425       -4.02695
H         12.94306        2.23295       -2.98067
H         14.09179        1.68728       -1.76063
H         15.53825        0.69261       -3.57070
H         14.38265        1.23223       -4.78809
H         12.59788       -0.19575       -3.72323
H         13.75564       -0.73509       -2.50872
H         15.19280       -1.73114       -4.32619
H         14.02461       -1.20073       -5.53671
H         12.25410       -2.63326       -4.45129
H         13.42466       -3.16188       -3.24413
H         14.85400       -4.13642       -5.07452
H         13.65413       -3.64284       -6.27383
H         11.91047       -5.04836       -5.08674
H         13.13920       -5.61349       -3.96288
H         13.14583       -6.07029       -7.01313
H         12.63202       -7.25069       -5.79054
H         14.94963       -7.23973       -4.80193
H         15.48325       -6.13199       -6.10082
H         15.85220       -6.91803       -8.19719
H         16.41151       -9.85248      -10.62842
H         17.42781       -8.55484      -10.00882
H         14.35130       -6.74836      -12.80586
H         15.17153       -7.67532      -14.10625
H         17.24454       -6.29925      -13.76079
H         16.42498       -5.37534      -12.48596
H         14.71726       -4.58219      -14.16405
H         15.54326       -5.48606      -15.43485
H         17.61607       -4.11157      -15.06777
H         16.79933       -3.21629      -13.78831
H         15.92699       -3.26527      -16.75145
H         16.74670       -1.92237      -15.93264
H         15.09483       -2.37034      -15.46444
H         15.47858      -11.18327       -8.80583
H         13.82164      -12.20611       -7.09279
H         16.45311      -14.78066       -4.04344
H         17.55070      -13.79632       -5.06662
H         15.74251      -16.08866       -6.08564
H         17.49604      -16.20549       -5.82648
H         16.87006      -15.12561       -7.08905
H         14.06605      -11.06510       -4.23953
H         13.22715      -12.55100       -4.73357
H         12.61950      -10.96523       -5.26474
