46

C         -0.09086        1.84930        3.29899
C          1.26356        2.48984        3.52449
O          2.28140        1.53705        3.17646
C          3.58903        2.02642        3.37038
C          4.52996        0.86423        3.04532
C          6.04063        1.12736        2.91725
O          6.63952        1.66766        4.09457
C          6.54468        3.05910        4.21727
N          7.30478        3.72112        3.11443
C          7.05170        3.20746        1.87695
N          7.47218        3.78964        0.74508
N          6.27774        2.11963        1.81628
C          8.37144        4.65718        3.42679
C          9.79815        4.04605        3.54808
F          9.77821        3.10586        4.52752
F         10.11266        3.44326        2.36417
F          8.42243        5.63958        2.46616
F          8.06974        5.25168        4.60249
C          6.76277       -0.19452        2.57562
C          8.30037       -0.17355        2.42842
C          9.02207       -0.38366        3.76737
C          8.73569       -1.24632        1.41726
H         -0.88816        2.55719        3.56040
H         -0.20732        0.95419        3.92340
H         -0.21781        1.56015        2.24763
H          1.39023        2.78970        4.58242
H          1.38392        3.39752        2.90155
H          3.71889        2.36558        4.41868
H          3.77741        2.90079        2.70920
H          4.18486        0.42171        2.09626
H          4.40618        0.08129        3.80624
H          6.99897        3.33723        5.17071
H          5.50886        3.42413        4.16777
H          7.92855        4.69359        0.76209
H          7.46972        3.26953       -0.12388
H          5.92252        1.85248        0.90186
H         10.54439        4.82167        3.78151
H          6.30340       -0.55727        1.64145
H          6.47358       -0.92150        3.35009
H          8.60576        0.80807        2.02180
H          8.78329       -1.37694        4.17657
H          8.74178        0.36639        4.51501
H         10.11070       -0.33870        3.62826
H          8.43615       -2.24906        1.75714
H          9.82739       -1.25182        1.29914
H          8.28925       -1.08298        0.42535
