78

C          8.74989       -8.95574       -2.04169
C          8.63306       -7.73214       -1.15540
O          7.24767       -7.32533       -1.11965
C          6.96167       -6.29427       -0.19817
C          7.29083       -4.88220       -0.73503
P          6.57930       -4.57446       -2.39850
Si         4.25269       -4.55551       -2.60669
C          3.65714       -3.11955       -1.55889
C          4.00496       -4.30546       -4.44973
C          3.64207       -6.22745       -2.02452
C          7.33554       -3.06238       -3.12169
C          8.86540       -3.08816       -3.14243
O          9.28356       -4.27923       -3.78150
C         10.71293       -4.38527       -3.85477
C         11.07455       -5.58727       -4.71971
O         12.47740       -5.73423       -4.56888
C         13.15806       -6.56513       -5.43989
C         12.55280       -7.39505       -6.38973
C         13.35591       -8.17368       -7.22988
C         14.75770       -8.15636       -7.15817
C         15.32952       -7.33640       -6.16998
C         14.55128       -6.54879       -5.32413
C         15.60085       -9.02139       -8.10998
C         15.31154       -8.70219       -9.61569
C         15.58511       -7.33239      -10.30955
C         17.08080       -6.96395      -10.36983
C         15.09052       -7.50028      -11.76344
C         14.80471       -6.16680       -9.67508
C         17.10448       -8.94554       -7.78506
C         15.18521      -10.50213       -7.90117
H          9.79602       -9.28668       -2.08383
H          8.42059       -8.73667       -3.06631
H          8.14226       -9.78097       -1.64949
H          9.26325       -6.90963       -1.54273
H          8.96380       -7.95572       -0.12521
H          7.51280       -6.43658        0.74926
H          5.88845       -6.36968        0.02948
H          8.37713       -4.73721       -0.82546
H          6.90900       -4.11315       -0.04639
H          7.06261       -5.63423       -3.19807
H          4.06751       -2.15664       -1.89114
H          3.89214       -3.25487       -0.49466
H          2.56184       -3.05450       -1.64488
H          4.39588       -3.34462       -4.80926
H          2.92331       -4.31552       -4.65468
H          4.45663       -5.11410       -5.04017
H          3.70395       -6.34481       -0.93525
H          4.18497       -7.05697       -2.49665
H          2.58193       -6.31953       -2.30710
H          6.97519       -2.18982       -2.55783
H          6.94154       -2.98580       -4.14632
H          9.27495       -3.02338       -2.11497
H          9.22428       -2.19618       -3.69011
H         11.13961       -4.51289       -2.84309
H         11.14059       -3.46658       -4.29257
H         10.79934       -5.40161       -5.77201
H         10.53525       -6.48976       -4.37437
H         11.46840       -7.44665       -6.48884
H         12.85800       -8.80506       -7.96768
H         16.41184       -7.29339       -6.05477
H         15.01330       -5.90839       -4.57195
H         14.24484       -8.92760       -9.78678
H         15.86416       -9.46335      -10.19421
H         17.68924       -7.80131      -10.74199
H         17.47830       -6.66070       -9.39331
H         17.22794       -6.11597      -11.05518
H         15.63512       -8.30405      -12.28107
H         15.24205       -6.57130      -12.33242
H         14.01813       -7.74481      -11.79534
H         15.13932       -5.94985       -8.65268
H         13.72641       -6.38058       -9.63594
H         14.94472       -5.25472      -10.27509
H         17.50697       -7.92708       -7.81639
H         17.67051       -9.54590       -8.51054
H         17.30780       -9.35726       -6.78572
H         14.13149      -10.67399       -8.15980
H         15.33094      -10.79965       -6.85313
H         15.79702      -11.16249       -8.53301
