95

C          0.83539       -1.29254       -1.55696
C          2.35880       -1.17986       -1.47358
C          2.90706        0.10594       -2.10038
C          4.43279        0.21687       -2.03348
C          4.98801        1.49857       -2.66199
C          6.51578        1.59236       -2.60680
C          7.07981        2.86912       -3.23752
C          8.60879        2.95003       -3.18908
C          9.17735        4.22564       -3.81837
C         10.70605        4.30750       -3.76054
C         11.27352        5.58421       -4.38877
C         12.79899        5.68895       -4.28979
C         13.35978        6.96610       -4.92388
C         14.87590        7.11097       -4.75061
C         15.43093        8.38719       -5.40426
C         16.91436        8.55367       -5.09688
N         17.56768        9.72555       -5.81452
C         17.13592       11.06252       -5.23170
C         17.46750       12.25597       -6.12732
C         16.93320       12.18024       -7.56725
C         15.40900       12.07746       -7.70441
C         14.94225       12.13281       -9.16369
C         13.42431       12.02318       -9.33282
C         12.97354       12.09512      -10.79534
C         11.45716       11.98342      -10.97809
C         11.01426       12.05441      -12.44271
C          9.49939       11.94066      -12.63465
C          9.06354       12.00346      -14.10200
C          7.54990       11.88750      -14.28993
C         19.07996        9.58178       -5.86717
C         19.53876        8.54604       -6.88144
H          0.47278       -2.22254       -1.09783
H          0.49230       -1.28115       -2.60233
H          0.34557       -0.45342       -1.04048
H          2.82089       -2.04952       -1.97073
H          2.67594       -1.23125       -0.41820
H          2.45343        0.97828       -1.59727
H          2.58266        0.16312       -3.15462
H          4.88240       -0.65804       -2.53550
H          4.75622        0.15890       -0.97912
H          4.54885        2.37491       -2.15344
H          4.65681        1.56168       -3.71361
H          6.95166        0.71341       -3.11370
H          6.84662        1.52914       -1.55511
H          6.65135        3.74911       -2.72621
H          6.74430        2.93602       -4.28749
H          9.03629        2.06967       -3.70044
H          8.94362        2.88194       -2.13899
H          8.74680        5.10598       -3.30951
H          8.84726        4.29213       -4.86996
H         11.13906        3.42740       -4.26726
H         11.03362        4.24309       -2.70806
H         10.81840        6.46351       -3.90005
H         10.97070        5.63553       -5.44925
H         13.26081        4.80864       -4.76952
H         13.09695        5.64852       -3.22746
H         12.86053        7.84395       -4.47818
H         13.10855        6.98317       -5.99856
H         15.38602        6.23036       -5.17618
H         15.11743        7.11801       -3.67392
H         14.85483        9.25272       -5.04193
H         15.27903        8.33401       -6.49670
H         17.46706        7.65618       -5.40226
H         17.09617        8.71699       -4.02522
H         17.23058        9.71205       -6.78957
H         17.62607       11.13868       -4.25157
H         16.05483       10.98582       -5.07011
H         18.55227       12.43989       -6.13900
H         17.03015       13.13180       -5.62255
H         17.41359       11.34786       -8.11888
H         17.27903       13.08341       -8.09288
H         14.93987       12.89954       -7.13704
H         15.03280       11.14409       -7.24579
H         15.43222       11.32465       -9.73573
H         15.29345       13.07636       -9.61506
H         12.93392       12.82866       -8.75917
H         13.07202       11.07527       -8.88820
H         13.46984       11.29289      -11.36951
H         13.32476       13.04415      -11.23637
H         10.96066       12.78735      -10.40700
H         11.10448       11.03486      -10.53593
H         11.51424       11.25179      -13.01324
H         11.36683       13.00323      -12.88380
H          8.99749       12.74681      -12.07084
H          9.14396       10.99416      -12.18991
H          9.56784       11.19831      -14.66288
H          9.41941       12.94911      -14.54461
H          7.16941       10.93771      -13.88523
H          7.27148       11.93167      -15.35165
H          7.02069       12.70207      -13.77324
H         19.39637        9.33665       -4.84410
H         19.48009       10.57015       -6.12014
H         19.19746        7.52982       -6.64733
H         20.63612        8.52555       -6.88774
H         19.21259        8.80483       -7.89926
