37

Br         0.81070       -1.29350        1.52200
C          2.14410       -0.55810        0.26588
C          3.04811       -1.67218       -0.26120
C          4.11186       -1.86846        0.83357
N          4.05043       -0.60210        1.69227
C          3.14017        0.38179        0.96397
C          2.63687        1.49698        1.84447
C          2.28988        1.32742        3.19132
C          1.81471        2.43093        3.90583
N          1.66070        3.64951        3.37271
C          1.98742        3.80368        2.08275
C          2.48577        2.77016        1.28487
C          5.40034       -0.02442        2.11110
C          6.04984       -0.88391        3.15779
C          5.64980       -0.76058        4.49928
C          6.21883       -1.57535        5.47886
C          7.19556       -2.51226        5.12655
C          7.60783       -2.63032        3.79643
C          7.03629       -1.81942        2.81384
H          1.56324       -0.04089       -0.50281
H          3.51541       -1.33698       -1.19905
H          2.50166       -2.59615       -0.47410
H          5.12661       -1.96215        0.43576
H          3.91167       -2.72208        1.48804
H          3.56156       -0.85803        2.56324
H          3.76284        0.81881        0.16505
H          2.35961        0.36541        3.70337
H          1.54094        2.32565        4.95885
H          1.85489        4.80538        1.66655
H          2.75008        2.96338        0.24330
H          5.18573        0.98392        2.48950
H          5.99888        0.05817        1.19453
H          4.91081       -0.00687        4.78400
H          5.91300       -1.46837        6.51955
H          7.64665       -3.14190        5.89365
H          8.38179       -3.34851        3.52578
H          7.37683       -1.90128        1.77939
