91

C         21.73398       -9.90441        7.23902
C         21.71007       -9.38479        5.80073
C         20.38263       -8.72390        5.41613
C         20.35693       -8.20054        3.97750
C         19.02525       -7.56282        3.57125
C         19.00981       -7.06502        2.12310
C         17.65675       -6.50664        1.67213
C         17.64522       -6.05947        0.20720
C         16.25619       -5.67784       -0.31434
C         16.24618       -5.34339       -1.81013
C         14.83567       -5.21481       -2.39345
C         14.77762       -5.03854       -3.90963
O         15.47030       -6.06101       -4.67705
C         15.03579       -7.37761       -4.40143
N         15.55341       -8.28303       -5.41275
C         16.87577       -8.50052       -5.64147
N         17.25357       -9.61824       -6.28773
C         18.66762      -10.00024       -6.48721
C         18.77924      -10.94457       -7.68912
C         20.14092      -11.64114       -7.79460
C         20.19591      -12.68030       -8.92041
C         21.53231      -13.42585       -8.98574
C         21.59580      -14.47176      -10.10372
C         22.92602      -15.22708      -10.14208
C         19.48533       -8.71555       -6.61669
C         19.22870       -7.76189       -5.44835
N         17.77769       -7.61158       -5.23372
C         19.81740       -6.37616       -5.71537
O         19.39582       -5.51357       -4.67955
C         19.93168       -4.18340       -4.80959
C         19.36585       -3.30671       -3.70634
C         19.95147       -1.88988       -3.72702
C         19.36029       -0.99162       -2.63852
H         22.69524      -10.37672        7.48235
H         20.94475      -10.65250        7.40512
H         21.57156       -9.08934        7.95931
H         21.91426      -10.21554        5.10445
H         22.52909       -8.66053        5.65521
H         20.17311       -7.89345        6.11282
H         19.56181       -9.44900        5.55598
H         20.58478       -9.03177        3.28653
H         21.16943       -7.46509        3.84277
H         18.79559       -6.72403        4.25077
H         18.21268       -8.29714        3.71096
H         19.29321       -7.89728        1.45378
H         19.78925       -6.29393        1.99204
H         17.36619       -5.66269        2.32067
H         16.88268       -7.28086        1.81850
H         18.04278       -6.87970       -0.41833
H         18.34044       -5.21294        0.07173
H         15.85547       -4.82726        0.26229
H         15.56473       -6.51939       -0.12909
H         16.79766       -6.13390       -2.34861
H         16.81118       -4.41488       -1.99436
H         14.32062       -4.34333       -1.95637
H         14.22869       -6.08609       -2.09245
H         15.26845       -4.10692       -4.22045
H         13.72770       -5.00534       -4.25234
H         13.93539       -7.45980       -4.43022
H         15.38959       -7.70676       -3.40736
H         14.88988       -8.75778       -6.01262
H         16.56310      -10.35745       -6.37873
H         18.99802      -10.54607       -5.58391
H         18.55370      -10.38740       -8.61352
H         17.99806      -11.71986       -7.59241
H         20.36942      -12.13598       -6.83470
H         20.93740      -10.89613       -7.95548
H         20.00053      -12.18543       -9.88693
H         19.37945      -13.41010       -8.78093
H         21.71891      -13.92015       -8.01602
H         22.35317      -12.69957       -9.11927
H         21.42212      -13.97632      -11.07343
H         20.76785      -15.18867       -9.97529
H         23.77073      -14.53974      -10.29546
H         22.94559      -15.96370      -10.95622
H         23.10363      -15.76703       -9.20029
H         19.22440       -8.21847       -7.56506
H         20.55297       -8.96577       -6.65240
H         19.67470       -8.15772       -4.52088
H         17.43391       -6.70663       -4.89220
H         19.47363       -6.00353       -6.70198
H         20.92053       -6.46197       -5.75080
H         19.66996       -3.77907       -5.80608
H         21.03533       -4.23266       -4.74531
H         19.56961       -3.78254       -2.73346
H         18.26952       -3.25838       -3.81442
H         19.77608       -1.43377       -4.71522
H         21.04546       -1.94688       -3.60432
H         18.27269       -0.87983       -2.76092
H         19.80217        0.01293       -2.66822
H         19.54336       -1.40625       -1.63653
