33

Br         4.15715        1.84546       -1.48298
C          4.04356        3.10968       -0.07088
C          3.42530        2.86364        1.08881
C          2.72811        1.61120        1.51530
C          1.19974        1.76910        1.71510
C          0.53307        0.42538        2.01211
N          0.50700       -0.38914        0.79059
C          0.44291        0.12228       -0.45282
N          0.40854       -0.69889       -1.51360
C          0.44428       -2.16012       -1.43758
C          0.46894       -2.74497       -2.85097
C          0.49136       -4.26880       -2.82871
F         -0.60861       -4.77007       -2.20635
F          0.52443       -4.76522       -4.08086
F          1.58046       -4.73730       -2.16206
N          0.43998        1.46465       -0.60858
C          0.48339        2.40999        0.51939
Br         0.18618        2.20099       -2.30709
Br         3.41693        4.27983        2.37610
H          4.54860        4.04323       -0.30543
H          3.15965        1.26652        2.46818
H          2.94464        0.83514        0.76580
H          1.02147        2.43718        2.57087
H         -0.49261        0.57070        2.38521
H          1.09095       -0.13660        2.77227
H          0.53918       -1.39853        0.87658
H          0.37616       -0.25231       -2.42707
H         -0.44392       -2.53042       -0.89947
H          1.34684       -2.48586       -0.89419
H          1.36227       -2.41246       -3.39888
H         -0.42296       -2.44201       -3.41831
H         -0.54112        2.71266        0.78552
H          1.02932        3.29936        0.18086
