25

Br         1.24895       -0.07053       -1.30696
C          2.79942        0.18305       -0.26301
C          2.79607        0.24329        1.07530
Br         1.29267        0.08374        2.17309
C          4.03059        0.31523       -1.13179
N          5.28718        0.36496       -0.36825
C          5.96647        1.48888       -0.09443
N          7.04101        1.14575        0.62791
C          7.05340       -0.21917        0.82744
C          5.93919       -0.72893        0.20854
C          5.49026       -2.14302        0.06947
C          6.24730       -2.92132       -1.00730
C          6.91898       -2.29007       -2.15351
O          7.66868       -2.76213       -1.01623
H          3.71721        0.39256        1.63768
H          3.97654        1.22788       -1.74356
H          4.09763       -0.53049       -1.83144
H          5.69147        2.49198       -0.40000
H          7.74065        1.80121        0.96701
H          7.84420       -0.72265        1.36968
H          4.40979       -2.19357       -0.12896
H          5.64551       -2.65285        1.03252
H          5.90463       -3.95657       -1.11204
H          6.90013       -1.20061       -2.27106
H          7.06336       -2.85701       -3.07640
