64

C          3.14655       -1.86567       -2.47673
C          3.34258       -0.86102       -1.34040
C          4.21150        0.33549       -1.74570
C          4.39884        1.34912       -0.61297
C          5.31663        2.51960       -0.96752
S          4.60972        3.52966       -2.36179
C          4.58561        4.91927       -1.40015
N          5.05462        4.84472       -0.18350
C          5.59185        3.50577        0.20855
C          7.08216        3.51253        0.59478
C          7.42192        4.11499        1.97246
O          6.51145        3.73835        2.99392
C          6.69450        2.40706        3.49246
C          5.83497        2.25415        4.74142
O          5.85941        0.88482        5.09160
C          5.16886        0.61903        6.30840
C          4.98235        5.95454        0.80122
C          3.92266        7.00881        0.49667
C          3.84250        8.05246        1.62014
C          2.75194        9.10102        1.37478
C          2.69580       10.17847        2.46242
C          1.58693       11.21094        2.23698
C          1.54393       12.30483        3.30895
C          0.42455       13.32335        3.08384
H          2.52479       -2.71048       -2.15400
H          4.10807       -2.27314       -2.82096
H          2.65187       -1.40032       -3.34157
H          3.80484       -1.36384       -0.47496
H          2.36176       -0.49527       -0.99459
H          3.75188        0.83241       -2.61919
H          5.19956       -0.02496       -2.08062
H          4.85125        0.84354        0.25876
H          3.42311        1.73655       -0.27546
H          6.27022        2.13775       -1.35986
H          4.16884        5.85163       -1.78167
H          5.00644        3.19915        1.09105
H          7.67858        4.01055       -0.18632
H          7.38964        2.45499        0.58669
H          7.40088        5.21285        1.94333
H          8.45353        3.82045        2.23714
H          7.75845        2.23339        3.73217
H          6.38471        1.64686        2.75050
H          4.80124        2.59561        4.52783
H          6.23273        2.88676        5.55794
H          5.24962       -0.45845        6.49164
H          4.10171        0.89602        6.23414
H          5.62090        1.16645        7.15420
H          5.97958        6.41758        0.85700
H          4.79369        5.47756        1.77454
H          2.94114        6.52071        0.37317
H          4.15089        7.52935       -0.44806
H          4.81911        8.55500        1.72284
H          3.65322        7.54341        2.58004
H          1.77204        8.59754        1.30608
H          2.91922        9.58135        0.39509
H          3.67069       10.69354        2.51455
H          2.55188        9.69777        3.44557
H          0.61055       10.69664        2.20209
H          1.71915       11.67908        1.24576
H          2.51676       12.82366        3.33572
H          1.42258       11.83568        4.29974
H          0.54309       13.83911        2.11971
H          0.41489       14.08894        3.87090
H         -0.56189       12.83713        3.08027
