57

O          1.50448       -0.02124       -0.45831
C          2.76285       -0.19175        0.19007
C          2.80354        0.82171        1.32555
O          4.01551        0.58845        2.05044
C          4.36680        1.59577        2.94344
O          5.78160        1.52719        3.03163
C          6.33465        2.08465        4.20369
C          7.82036        1.68260        4.19546
C          8.02577        0.16005        4.31505
C          7.83840       -0.33124        5.75460
C          8.73402        0.38850        6.76707
N          8.52110        1.91068        6.64034
C          8.67749        2.43517        5.21098
C          7.24891        2.50178        7.31253
O          6.87287        3.59350        6.99463
O          6.82022        1.66733        8.22282
C          5.64227        2.10882        9.03037
C          5.63765        1.29180       10.29741
C         10.23063        0.07874        6.65667
C         10.54404       -1.25630        7.37912
O          9.64778       -1.81751        7.99819
C         11.92220       -1.80057        7.30777
C         12.16398       -3.05394        7.90455
C         13.44056       -3.60529        7.88485
C         14.49492       -2.91142        7.27822
C         14.26741       -1.66551        6.68550
C         12.98735       -1.11364        6.69441
H          1.45705       -0.63422       -1.20660
H          3.60842       -0.00642       -0.49617
H          2.87641       -1.20859        0.60797
H          1.91958        0.68894        1.97521
H          2.78493        1.85051        0.92220
H          3.92681        1.42621        3.95383
H          4.04536        2.59154        2.56957
H          5.79683        1.70059        5.09700
H          6.23895        3.18757        4.22002
H          8.19993        2.00725        3.21274
H          9.02900       -0.10371        3.94582
H          7.31276       -0.34421        3.65081
H          8.05555       -1.40406        5.83862
H          6.78864       -0.21969        6.06716
H          8.41882        0.13152        7.78361
H          9.28389        2.34662        7.18040
H          9.74318        2.31227        4.97975
H          8.44689        3.50580        5.25313
H          4.76258        1.93105        8.39742
H          5.75174        3.18690        9.20189
H          5.57798        0.21666       10.08643
H          4.75429        1.57016       10.88837
H          6.52755        1.49045       10.90812
H         10.83777        0.86368        7.14363
H         10.57617        0.02416        5.61458
H         11.33187       -3.57530        8.37771
H         13.62070       -4.57697        8.34481
H         15.49594       -3.34412        7.26728
H         15.09021       -1.12449        6.21787
H         12.83138       -0.14054        6.22648
