54

C          2.35381        1.63937       -1.48409
C          3.40515        1.30914       -0.98838
C          4.68744        0.94290       -0.40300
N          4.79608        1.32292        1.01748
C          5.18414        0.52271        2.09302
C          5.58883       -0.90435        2.00109
C          6.99660       -1.12260        1.37198
C          8.09915       -0.27126        2.04214
C          8.37680       -0.55922        3.52204
C          7.31338       -2.62355        1.35903
N          5.21959        1.23089        3.19332
N          4.83430        2.49922        2.83038
C          4.59197        2.58395        1.50613
N          4.23015        3.68257        0.83590
C          4.70444        3.54192        3.84595
C          6.03552        4.20954        4.22525
P          6.81629        5.07786        2.82456
O          5.82381        5.63634        1.86000
O          7.73971        6.24445        3.37986
C          8.88350        6.01684        4.27050
C          9.67635        7.30344        4.34453
O          7.76537        3.91766        2.24513
C          8.53994        4.14706        1.01955
C          7.91268        3.41212       -0.14973
H          1.41660        1.91004       -1.92815
H          5.51467        1.41556       -0.95807
H          4.83892       -0.14325       -0.45902
H          4.83718       -1.47611        1.43378
H          5.56907       -1.29906        3.02614
H          6.94860       -0.78896        0.31941
H          7.84870        0.79710        1.92954
H          9.02360       -0.42270        1.46249
H          7.50333       -0.35485        4.15686
H          9.19432        0.07857        3.88355
H          8.68227       -1.60043        3.69069
H          7.31654       -3.04780        2.37268
H          8.30097       -2.80872        0.91625
H          6.57339       -3.18309        0.77044
H          4.68282        4.57813        1.13777
H          3.92048        3.57930       -0.12534
H          4.26207        3.05741        4.72523
H          3.99029        4.28217        3.46141
H          6.73579        3.47813        4.65057
H          5.82971        4.96616        4.99702
H          9.48416        5.18746        3.86852
H          8.49646        5.72477        5.25904
H         10.05424        7.59090        3.35528
H         10.53515        7.16624        5.01551
H          9.06083        8.12305        4.73590
H          9.54548        3.76765        1.24253
H          8.61018        5.22703        0.82439
H          7.81268        2.34165        0.07736
H          8.55358        3.51339       -1.03644
H          6.92690        3.82956       -0.39267
