65

C         15.00348        2.75068       -4.19597
C         13.87175        2.37741       -3.23563
C         14.24972        1.26720       -2.24868
C         13.12246        0.90446       -1.27713
C         13.48119       -0.22099       -0.30167
C         12.35525       -0.55036        0.68359
C         12.68911       -1.69712        1.64324
C         11.57294       -1.98525        2.65318
C         11.88681       -3.15850        3.58518
C         10.77125       -3.41952        4.62010
C         11.07445       -4.57619        5.51675
N         11.71866       -4.40399        6.73763
C         12.04623       -5.56928        7.30816
N         11.60674       -6.52610        6.46405
C         11.00973       -5.95362        5.35230
N         10.57511       -6.76260        4.30601
N          9.47018       -6.32751        3.54819
N         10.56201       -8.13756        4.66720
C         12.71304       -5.72889        8.63061
C         13.78030       -4.64934        8.87315
O         13.17614       -3.36528        8.73831
Si        13.95100       -1.90190        9.16672
C         15.61125       -1.82543        8.29850
C         12.75722       -0.61328        8.52041
C         14.14156       -1.83909       11.02753
H         14.69570        3.54287       -4.89207
H         15.31918        1.88520       -4.79767
H         15.88781        3.11307       -3.65090
H         12.98694        2.06060       -3.81358
H         13.55726        3.27171       -2.67116
H         15.14153        1.57690       -1.67531
H         14.55256        0.36680       -2.81220
H         12.22554        0.61369       -1.85212
H         12.83313        1.80353       -0.70470
H         14.38928        0.05737        0.26176
H         13.74684       -1.12846       -0.87214
H         11.43983       -0.80353        0.12040
H         12.10813        0.35342        1.26789
H         13.62060       -1.46153        2.18733
H         12.90223       -2.61098        1.06133
H         10.63238       -2.19064        2.11215
H         11.38157       -1.07977        3.25515
H         12.83453       -2.97258        4.11823
H         12.04946       -4.07527        2.99343
H          9.81666       -3.58327        4.10011
H         10.61753       -2.52158        5.23970
H         11.99738       -3.53069        7.20292
H         11.66870       -7.54008        6.55312
H          9.78338       -5.79905        2.73380
H          8.81682       -5.77109        4.10661
H         10.89237       -8.66910        3.85951
H          9.59243       -8.42685        4.84187
H         13.17242       -6.72602        8.69248
H         11.95418       -5.67064        9.42916
H         14.60412       -4.76687        8.14681
H         14.19594       -4.79201        9.88453
H         15.50211       -1.92810        7.20934
H         16.29905       -2.60695        8.65084
H         16.09440       -0.85721        8.49347
H         12.64155       -0.68071        7.42875
H         13.12310        0.39808        8.74642
H         11.76629       -0.71737        8.98404
H         14.78483       -2.64618       11.40549
H         13.16762       -1.91083       11.53038
H         14.60542       -0.88853       11.32835
