50

C          0.56900       -4.86688        3.84562
C          2.07940       -5.10577        3.90998
C          2.85347       -4.34545        2.82592
C          4.36912       -4.57525        2.89059
C          5.12005       -3.79468        1.82516
O          6.53101       -4.05696        1.96485
C          7.33764       -3.36525        1.02980
C          8.78903       -3.74934        1.33772
P          8.93004       -5.53605        1.67629
C          8.07418       -6.51910        0.40422
C          8.29219       -8.04093        0.59532
O          8.28653       -8.35463        1.99549
C          7.27982       -8.85870       -0.19376
C         10.68062       -6.04836        1.81019
C         11.47986       -5.13625        2.74388
O         10.66109       -4.92287        3.88646
C         11.20961       -4.04714        4.85928
C         10.05986       -3.58642        5.75242
F          9.43616       -4.62377        6.35227
F         10.52519       -2.75608        6.70850
F          9.12153       -2.91140        5.02844
H          0.04369       -5.41625        4.63816
H          0.15115       -5.19514        2.88241
H          0.32680       -3.80074        3.96552
H          2.28770       -6.18523        3.81726
H          2.45919       -4.80785        4.90152
H          2.64195       -3.26648        2.92108
H          2.47458       -4.64242        1.83240
H          4.58968       -5.65008        2.77306
H          4.75258       -4.28090        3.88068
H          4.94383       -2.70871        1.93317
H          4.79336       -4.08851        0.80855
H          7.21792       -2.27017        1.12047
H          7.06960       -3.64184       -0.00946
H          9.14213       -3.24688        2.25017
H          9.46215       -3.48776        0.50880
H          8.32081       -5.79094        2.91305
H          8.41392       -6.18312       -0.58760
H          7.00894       -6.25736        0.50493
H          9.30873       -8.29503        0.25335
H          7.38914       -8.61408        2.26205
H          6.25320       -8.64382        0.14272
H          7.47625       -9.93017       -0.06149
H          7.33408       -8.63273       -1.26732
H         11.12215       -6.06732        0.80361
H         10.65486       -7.07841        2.19528
H         11.72067       -4.17347        2.25457
H         12.43248       -5.62492        3.01410
H         11.65883       -3.15027        4.39842
H         11.96623       -4.55106        5.48440
