51

F          0.88002        2.94921        0.21033
C          1.92717        2.24582       -0.38195
C          3.13132        2.25732        0.55289
C          4.32450        1.45777        0.00105
C          5.60065        1.57206        0.84289
C          5.44355        0.83746        2.16785
N          4.89382       -0.51971        1.98340
C          4.26188       -0.88437        0.84647
N          3.84963       -2.15194        0.66078
C          3.07974       -2.60559       -0.49915
C          2.64104       -4.06276       -0.30959
O          1.93637       -4.41916       -1.46596
Si         1.33801       -5.97765       -1.79410
C          2.78072       -7.17754       -1.87575
C          0.14576       -6.47635       -0.43221
C          0.48555       -5.77897       -3.44334
N          4.01940        0.02177       -0.11950
C          5.04302       -1.44941        3.10322
C          6.32820       -2.31515        3.02106
C          6.06243       -3.77434        3.34107
F          5.54298       -3.93986        4.57737
F          5.13672       -4.30190        2.45339
F          7.17216       -4.52389        3.23943
H          2.15771        2.73149       -1.34478
H          1.56426        1.22242       -0.57632
H          2.82039        1.86036        1.53203
H          3.44914        3.29941        0.70892
H          4.54776        1.80304       -1.01981
H          5.83531        2.62531        1.04146
H          6.44158        1.14808        0.27514
H          4.78661        1.39046        2.85931
H          6.42242        0.73758        2.65791
H          4.20645       -2.87515        1.28011
H          3.67656       -2.54489       -1.42584
H          2.17916       -1.98275       -0.61847
H          2.01456       -4.14184        0.60102
H          3.53835       -4.69613       -0.15371
H          3.29924       -7.27180       -0.91084
H          3.51459       -6.87185       -2.63412
H          2.42083       -8.18069       -2.14638
H          0.64224       -6.55739        0.54527
H         -0.28951       -7.46137       -0.65502
H         -0.68244       -5.76026       -0.34042
H          1.18839       -5.44175       -4.21702
H         -0.33268       -5.04897       -3.37990
H          0.05699       -6.73637       -3.77199
H          3.64075       -0.32996       -0.99086
H          4.14367       -2.07745        3.16692
H          5.04831       -0.84872        4.02066
H          7.10015       -1.96028        3.71497
H          6.75566       -2.27884        2.00990
