57

O          3.07006       -0.07132       -1.01366
C          2.58051        0.48222        0.21212
C          3.02363       -0.45935        1.34027
C          4.50276       -0.57707        1.40569
N          5.33051        0.39967        1.82178
N          6.56717       -0.05077        1.74666
N          6.53627       -1.28428        1.29458
N          5.24744       -1.65440        1.06288
C          4.82025       -2.98281        0.58469
C          4.68129       -3.07184       -0.93864
C          4.12813       -4.44027       -1.37686
C          2.73305       -4.79329       -0.83254
C          1.63714       -3.79451       -1.22723
C          0.32523       -4.07267       -0.49832
O         -0.68140       -3.08478       -0.83271
C         -0.63997       -1.92162       -0.13213
O          0.18078       -1.68520        0.74458
C         -1.71417       -1.00844       -0.58834
C         -1.91278        0.17889       -0.00448
C          7.75918       -2.07445        1.05710
C          8.31776       -1.93346       -0.36789
C          8.67198       -0.50760       -0.80016
C          9.74862        0.18129        0.04782
C         10.22416        1.50253       -0.57379
N         10.81417        1.27322       -1.89816
H          2.77252        0.48823       -1.74723
H          1.48068        0.52087        0.22845
H          2.98836        1.49246        0.38252
H          2.53687       -1.43314        1.20339
H          2.67530       -0.04738        2.29824
H          3.85993       -3.16525        1.08332
H          5.53224       -3.71947        0.98109
H          5.66288       -2.91277       -1.40619
H          4.03396       -2.25088       -1.27669
H          4.83766       -5.23367       -1.09013
H          4.10240       -4.44458       -2.47728
H          2.76650       -4.88670        0.26771
H          2.46793       -5.79894       -1.19318
H          1.46880       -3.82933       -2.31495
H          1.94610       -2.76525       -0.99101
H          0.47333       -4.07190        0.59156
H         -0.11716       -5.02984       -0.80236
H         -2.33500       -1.36058       -1.41281
H         -1.28994        0.49884        0.83272
H         -2.70510        0.84968       -0.33404
H          7.53340       -3.11772        1.31213
H          8.46243       -1.68814        1.80504
H          7.61628       -2.38674       -1.08325
H          9.21906       -2.56811       -0.38421
H          7.76339        0.11904       -0.82503
H          9.03122       -0.54662       -1.83913
H         10.61639       -0.49365        0.15969
H          9.38423        0.39435        1.06537
H         10.90268        2.00526        0.14062
H          9.35831        2.17112       -0.70408
H         11.75896        0.89568       -1.81221
H         10.90011        2.14789       -2.41432
