51

N          4.21528        1.26227       -0.57936
C          2.98691        0.70139       -0.01110
C          2.33854        1.76635        0.94560
N          2.23231        3.09122        0.29552
C          1.15187        3.25086       -0.51968
C          1.01841        4.37063       -1.31354
C          2.05172        5.30337       -1.32417
C          3.17603        5.14321       -0.50431
C          3.23045        4.03986        0.37545
C          4.28766        3.95459        1.44978
C          3.96770        4.86035        2.67273
C          2.75677        4.44743        3.52674
C          3.03945        3.25966        4.44839
S          1.54855        2.36951        4.96440
O          0.73773        2.11049        3.79150
O          1.92096        1.31136        5.86831
Cl         0.57387        3.83470        6.06578
C          4.30790        6.14996       -0.59862
C          5.59441        5.65371       -1.31326
C          5.49226        5.24046       -2.78149
C          5.08693        6.34418       -3.81283
Br         6.24851        7.91150       -3.74808
F          5.07139        5.84198       -5.05785
F          3.80848        6.74877       -3.53270
Br         7.21860        4.48623       -3.33531
F          4.53738        4.23877       -2.92110
N          2.01217        0.39522       -1.05237
N          3.23489       -0.44517        0.84703
H          4.02949        1.81864       -1.41716
H          4.85337        0.51063       -0.84122
H          2.93016        1.84373        1.85612
H          1.33390        1.44227        1.23386
H          0.42438        2.44555       -0.50101
H          0.13090        4.48857       -1.93247
H          1.99218        6.16957       -1.98292
H          5.23878        4.29178        1.02186
H          4.47526        2.92082        1.75282
H          3.79629        5.88799        2.32102
H          4.87348        4.90203        3.29717
H          1.89503        4.21740        2.88200
H          2.45101        5.30237        4.14466
H          3.56145        3.53674        5.37353
H          3.61788        2.45536        3.96462
H          4.62490        6.46470        0.40523
H          3.93249        7.05444       -1.09196
H          6.00545        4.77590       -0.79644
H          6.35492        6.44217       -1.24252
H          2.45634       -0.07648       -1.84085
H          1.27178       -0.21194       -0.69225
H          4.02583       -0.30063        1.47656
H          3.40331       -1.28825        0.29792
