74

C         -0.32265       11.19265        3.61015
C          1.19869       11.32947        3.70686
C          1.91885        9.98801        3.88397
C          3.44122       10.11626        3.99396
C          4.15961        8.77561        4.17839
C          5.68103        8.90720        4.29741
C          6.40083        7.56969        4.49860
C          7.92095        7.70989        4.62617
C          8.64570        6.38134        4.86499
C         10.16362        6.53923        5.00584
C         10.88350        5.22558        5.33689
C         12.41572        5.32638        5.38764
C         12.91227        6.33249        6.42894
N         14.37718        6.28975        6.54212
C         15.18540        7.33022        6.74081
N         16.53074        7.25226        6.80008
C         17.09752        8.54513        7.21396
C         15.96142        9.53569        6.83708
N         14.79386        8.60839        6.89393
C         15.82701       10.67048        7.86404
C         14.66375       11.64830        7.64870
C         14.63381       12.74124        8.72039
C         16.11626       10.04733        5.37610
C         17.30906       10.98407        5.24090
O         18.46184       10.63155        5.41323
O         16.91310       12.23305        4.93855
C         17.96275       13.25674        4.86112
C         18.16166       13.91639        6.21321
H         -0.80881       12.16984        3.48403
H         -0.74054       10.72830        4.51585
H         -0.61375       10.56490        2.75462
H          1.45647       11.99265        4.55026
H          1.58289       11.83047        2.80201
H          1.66784        9.32552        3.03659
H          1.52911        9.48249        4.78538
H          3.69015       10.78172        4.83972
H          3.83175       10.61858        3.09125
H          3.91571        8.11072        3.33125
H          3.76585        8.27201        5.07877
H          5.92289        9.58002        5.13950
H          6.07669        9.40260        3.39308
H          6.16498        6.89561        3.65673
H          6.00366        7.07409        5.40196
H          8.15178        8.40187        5.45629
H          8.32176        8.18760        3.71448
H          8.42640        5.68438        4.03818
H          8.24413        5.90569        5.77674
H         10.35912        7.28909        5.79369
H         10.57716        6.96092        4.07192
H         10.62002        4.46615        4.58474
H         10.51233        4.83544        6.29997
H         12.81316        5.61096        4.39982
H         12.83331        4.33265        5.62452
H         12.46316        6.13045        7.41552
H         12.61629        7.34884        6.13537
H         14.80735        5.37024        6.49234
H         17.01988        6.37577        6.94232
H         18.02371        8.77308        6.67456
H         17.28436        8.55702        8.29939
H         13.85692        8.91604        6.65765
H         16.77761       11.22911        7.86471
H         15.74107       10.21221        8.86212
H         13.70370       11.10286        7.66669
H         14.74011       12.11890        6.65709
H         14.53924       12.31566        9.72983
H         13.78856       13.42386        8.56579
H         15.55542       13.34106        8.69769
H         15.19964       10.55811        5.05743
H         16.28582        9.19041        4.70738
H         17.58376       13.96185        4.11220
H         18.88151       12.78357        4.49347
H         17.21995       14.33657        6.59115
H         18.88414       14.73806        6.11582
H         18.56118       13.20615        6.94928
