46

C          0.62095       -0.77676       -0.13229
C          2.12442       -0.85998       -0.40822
C          2.95965       -1.05002        0.86399
C          4.46059       -1.16090        0.57932
C          5.30802       -1.29310        1.86871
C          6.76743       -1.43772        1.55681
C          7.55117       -0.31324        1.20414
C          8.86621       -0.48801        0.86464
N          9.45827       -1.72104        0.84431
C          8.71011       -2.85588        1.09276
C          7.37312       -2.68790        1.49368
N          9.30024       -4.08380        0.95402
C          9.92369       -4.47171       -0.32065
C          8.77858       -5.20487        1.73364
C         10.94004       -1.73890        0.76736
C         11.64027       -1.23078        2.05694
C         11.56411       -2.18187        3.25508
O         10.20222       -2.35556        3.65589
O         12.99234       -0.95378        1.72507
H          0.05558       -0.61047       -1.05885
H          0.38391        0.04939        0.55426
H          0.24529       -1.70494        0.32315
H          2.45721        0.05544       -0.92564
H          2.32635       -1.69198       -1.10377
H          2.62021       -1.95598        1.39543
H          2.77614       -0.20727        1.55260
H          4.79913       -0.27757        0.01233
H          4.65563       -2.03240       -0.06743
H          4.96306       -2.16165        2.44846
H          5.15378       -0.40032        2.49446
H          7.12933        0.69059        1.20027
H          9.52109        0.34392        0.60950
H          6.78272       -3.58036        1.69390
H         10.00413       -3.61448       -0.99687
H          9.29691       -5.22897       -0.81830
H         10.92307       -4.90247       -0.16078
H          8.54102       -4.87148        2.74964
H          9.56525       -5.96756        1.80086
H          7.89091       -5.67344        1.27353
H         11.24335       -1.08367       -0.05906
H         11.28379       -2.75037        0.54297
H         11.19756       -0.26538        2.35022
H         12.17099       -1.74348        4.06212
H         12.01494       -3.15796        2.97992
H         10.17995       -2.49665        4.61362
H         13.50836       -1.77805        1.73414
