67

O          3.43303       -1.92636       -1.15943
C          4.46035       -1.23670       -0.45656
C          4.42979        0.19557       -0.99218
O          5.54390        0.98836       -0.54940
C          5.43163        1.44778        0.78830
C          6.59201        2.41482        1.06043
C          6.64174        3.59049        0.13964
C          6.03251        4.82352        0.27553
C          5.08884        5.34241        1.30814
C          3.62364        5.01312        0.95049
C          2.63519        5.48398        2.01936
S          1.03657        4.69984        1.71279
O          0.46880        5.23878        0.49497
O          1.21229        3.28138        1.90504
O          0.17825        5.24819        2.96977
N          6.39103        5.55452       -0.84399
C          7.18966        4.82960       -1.63778
N          7.35166        3.62938       -1.06397
C          8.18987        2.56806       -1.65647
C          7.54956        1.99629       -2.93043
C          8.52199        1.21487       -3.82255
C          9.19131        1.99871       -5.02215
C         10.14280        3.23585       -4.76578
C         11.51981        3.11944       -3.99359
C         12.67471        2.15052       -4.47390
C         13.33245        2.29063       -5.90584
C         14.06675        3.62042       -6.35250
C         15.26538        4.16011       -5.48533
F         16.14587        3.18294       -5.21585
F         15.88364        5.12944       -6.17790
F         14.82087        4.68273       -4.32583
F         14.55605        3.35462       -7.58834
F         13.14723        4.61568       -6.45613
F         14.23351        1.28085       -5.97836
F         12.36199        2.06708       -6.83064
F         13.66129        2.28241       -3.54979
F         12.19247        0.88421       -4.39924
F         12.00930        4.38151       -3.93790
F         11.23577        2.73305       -2.71155
F         10.38445        3.79680       -5.96574
F          9.40792        4.14793       -4.02478
F          9.85233        1.11129       -5.79433
F          8.15434        2.51674       -5.75156
F          9.50590        0.61960       -3.07687
F          7.82002        0.21448       -4.43666
H          3.34033       -2.81780       -0.79139
H          5.45924       -1.67183       -0.64876
H          4.28093       -1.25460        0.63412
H          3.47912        0.68861       -0.72315
H          4.49728        0.16207       -2.08886
H          5.49169        0.62010        1.51683
H          4.45796        1.95202        0.93845
H          7.54185        1.86270        1.02213
H          6.49842        2.78430        2.09191
H          5.22899        6.42829        1.42765
H          5.34497        4.89263        2.27889
H          3.52892        3.92397        0.83295
H          3.35976        5.45767       -0.02064
H          2.47908        6.57101        2.01000
H          2.93152        5.17039        3.03034
H         -0.47724        5.88650        2.62663
H          6.10745        6.51142       -1.03668
H          7.64037        5.15905       -2.56670
H          8.30352        1.78166       -0.90598
H          9.17694        3.00270       -1.83753
H          7.08738        2.78632       -3.53604
H          6.75303        1.29949       -2.64371
