74

C          0.68236        0.68339       -0.76560
C          2.02122        0.25967       -0.15569
C          2.70206        1.37497        0.64651
C          4.03911        0.95872        1.26842
C          4.74325        2.09518        2.01745
C          6.07811        1.67928        2.64645
C          6.82418        2.85487        3.29158
C          8.13412        2.41874        3.91931
O          8.84668        3.63262        4.34688
C         10.12522        3.48235        4.68347
O         10.74121        2.43851        4.76702
C         10.76449        4.86284        4.96007
C         12.23486        4.78793        4.76190
N         13.19231        4.83180        5.77053
C         12.91130        5.04323        7.20306
C         14.18069        5.20645        8.03874
O         13.74140        5.47301        9.34199
C         14.83096        5.62270       10.27464
C         14.26470        5.89759       11.65541
C         15.36586        6.07318       12.70884
C         14.81648        6.35596       14.11213
C         15.91478        6.52881       15.16370
C         14.41083        4.63253        5.24507
N         14.26636        4.45910        3.92315
C         12.92849        4.54467        3.58561
C         12.43674        4.35274        2.25332
N         11.20081        4.41490        1.83784
N         11.21706        4.11830        0.49204
C         12.47345        3.89722        0.16911
O         13.32404        4.03081        1.25259
S         13.05443        3.50352       -1.40488
C         14.82598        3.13081       -1.09337
C         15.44917        2.69475       -2.41764
H          0.22561       -0.13334       -1.34118
H          0.80519        1.53956       -1.44562
H         -0.03511        0.98149        0.01319
H          2.70169       -0.07657       -0.95636
H          1.86861       -0.61645        0.49708
H          2.01952        1.71976        1.44344
H          2.86120        2.24843       -0.01085
H          4.70742        0.57981        0.47493
H          3.87504        0.11022        1.95566
H          4.07553        2.48757        2.80417
H          4.91654        2.93468        1.32148
H          6.71905        1.22437        1.87141
H          5.89962        0.88947        3.39651
H          6.19054        3.33509        4.05421
H          7.03812        3.61939        2.52764
H          8.78192        1.89015        3.20545
H          7.99258        1.77552        4.80034
H         10.50447        5.16956        5.98257
H         10.32062        5.59717        4.27428
H         12.32676        4.18679        7.56670
H         12.29923        5.94999        7.29979
H         14.80107        6.04036        7.64440
H         14.79474        4.28075        8.00732
H         15.48200        6.45356        9.94037
H         15.43776        4.69637       10.27273
H         13.59917        5.06677       11.93930
H         13.63922        6.80361       11.60948
H         16.03673        6.89738       12.40936
H         15.99488        5.16616       12.74165
H         14.14349        5.53460       14.41000
H         14.18997        7.26307       14.07822
H         16.53087        5.62180       15.25267
H         15.48997        6.73876       16.15418
H         16.58660        7.36153       14.90822
H         15.35054        4.62022        5.78103
H         15.02526        4.28329        3.27082
H         14.88219        2.33338       -0.34104
H         15.30718        4.03622       -0.70237
H         14.96422        1.79423       -2.81627
H         16.51026        2.46263       -2.25794
H         15.38881        3.48712       -3.17547
