96

C          1.13749        0.50779        0.44134
C          2.50464        0.40916       -0.24064
C          3.11136       -0.99741       -0.18477
C          4.45083       -1.12207       -0.91746
C          5.07622       -2.51764       -0.82517
C          6.38330       -2.65726       -1.61162
C          7.01697       -4.04859       -1.51463
C          8.30637       -4.19239       -2.32928
C          8.94555       -5.58100       -2.23527
C         10.22684       -5.72477       -3.06128
C         10.88825       -7.09962       -2.93342
C         12.22966       -7.20000       -3.66573
C         13.02991       -8.44986       -3.28979
C         14.46162       -8.43304       -3.83435
C         15.34572       -9.51548       -3.19997
C         16.84558       -9.29197       -3.43317
C         17.66289      -10.47293       -2.87704
N         19.14166      -10.25074       -3.17325
C         19.66513       -8.88315       -2.74629
C         18.74618       -7.80618       -3.34704
N         17.35628       -8.01352       -2.92462
C         17.01884       -7.69812       -1.52755
C         16.01153       -6.52004       -1.43303
O         16.26202       -5.50236       -2.06345
C         14.78349       -6.64133       -0.60094
C         14.54712       -7.69989        0.29627
C         13.36304       -7.75187        1.03209
C         12.39617       -6.75549        0.87109
C         12.62085       -5.69692       -0.01725
C         13.80685       -5.63533       -0.74054
C         19.28130       -6.38657       -3.12415
C         18.70065       -5.39297       -4.13734
C         19.02097       -3.92945       -3.79101
C         18.44701       -2.97133       -4.80941
C         19.22241       -2.51198       -5.88328
C         18.67659       -1.66288       -6.84966
C         17.34248       -1.25996       -6.75324
C         16.55948       -1.71030       -5.68627
C         17.10825       -2.55917       -4.72271
H          0.73493        1.52907        0.39460
H          1.19814        0.22324        1.50265
H          0.40495       -0.15988       -0.03648
H          3.20358        1.12350        0.22719
H          2.41432        0.72384       -1.29438
H          2.39437       -1.71883       -0.61599
H          3.23910       -1.29734        0.87078
H          5.16039       -0.37782       -0.51431
H          4.30866       -0.85648       -1.97989
H          4.35144       -3.26665       -1.19059
H          5.25733       -2.76715        0.23534
H          7.10637       -1.90133       -1.25721
H          6.19442       -2.41821       -2.67281
H          6.28772       -4.80580       -1.85259
H          7.22432       -4.28280       -0.45522
H          9.03528       -3.43113       -1.99807
H          8.09420       -3.96201       -3.38799
H          8.21477       -6.34344       -2.55670
H          9.16914       -5.81004       -1.17712
H         10.95041       -4.95045       -2.74807
H         10.00730       -5.51385       -4.12222
H         10.20050       -7.88216       -3.29684
H         11.05306       -7.31751       -1.86421
H         12.83696       -6.31234       -3.41661
H         12.07208       -7.15918       -4.75692
H         12.50254       -9.35910       -3.62540
H         13.07301       -8.51289       -2.18902
H         14.90631       -7.44471       -3.64584
H         14.45977       -8.55223       -4.93041
H         15.07844      -10.50698       -3.60048
H         15.13861       -9.56894       -2.11829
H         17.00739       -9.26321       -4.52878
H         17.39079      -11.43444       -3.33296
H         17.57140      -10.55626       -1.78534
H         19.28064      -10.33625       -4.19114
H         19.70164      -10.99543       -2.73984
H         20.69938       -8.81642       -3.10967
H         19.66774       -8.86887       -1.64767
H         18.74632       -7.96945       -4.44398
H         17.91243       -7.36288       -0.97620
H         16.65227       -8.58785       -0.99807
H         15.28965       -8.48374        0.44787
H         13.19344       -8.57062        1.73152
H         11.46589       -6.80349        1.43820
H         11.86417       -4.92237       -0.14607
H         14.00207       -4.81718       -1.43358
H         20.38130       -6.40503       -3.20193
H         19.05558       -6.05090       -2.09998
H         17.60969       -5.51752       -4.17296
H         19.08979       -5.62495       -5.14314
H         20.11242       -3.79017       -3.72471
H         18.60675       -3.70633       -2.79514
H         20.26987       -2.81446       -5.95843
H         19.29691       -1.30878       -7.67407
H         16.91604       -0.59252       -7.50290
H         15.51944       -1.39196       -5.60099
H         16.49468       -2.90611       -3.88779
