76

C          0.91510        0.15440        0.66292
C          2.40482        0.50246        0.61101
C          2.87017        0.98246       -0.76833
C          4.35687        1.34846       -0.82159
C          4.84946        1.71727       -2.22480
C          6.32812        2.11787       -2.26566
C          6.87930        2.27620       -3.68720
C          8.34382        2.73222       -3.71359
C          8.96737        2.60583       -5.09261
O         10.31040        3.13264       -5.04131
C         11.09503        2.77404       -6.15777
C         12.46476        3.44460       -6.05766
C         13.15224        3.62251       -7.44472
N         14.46119        4.25783       -7.35449
C         15.36231        3.65361       -6.39193
C         14.74084        3.45203       -5.00985
N         13.42510        2.70271       -5.11349
C         12.86887        2.37831       -3.73045
C         13.56128        1.17683       -3.09937
C         12.89681        0.79651       -1.76709
C         13.53148       -0.43501       -1.11026
C         12.85578       -0.81980        0.20766
C         13.23022        2.30600       -8.26878
C         13.61221        2.55825       -9.70927
C         12.62516        2.90872      -10.64183
C         12.96385        3.18683      -11.96734
C         14.29785        3.11328      -12.37674
C         15.28767        2.75659      -11.45739
C         14.94544        2.48149      -10.13182
H          0.62108       -0.20794        1.65745
H          0.66256       -0.63145       -0.06465
H          0.29108        1.03061        0.43145
H          2.99967       -0.38006        0.90309
H          2.62955        1.27870        1.36231
H          2.26743        1.85537       -1.07518
H          2.66055        0.19583       -1.51480
H          4.95423        0.49963       -0.44373
H          4.55255        2.18616       -0.12932
H          4.23625        2.54142       -2.62888
H          4.68507        0.85973       -2.90096
H          6.92646        1.35578       -1.73555
H          6.47091        3.05796       -1.70538
H          6.25999        2.99383       -4.25121
H          6.78214        1.31100       -4.21454
H          8.93443        2.12511       -3.00635
H          8.42348        3.77739       -3.37492
H          8.39053        3.15972       -5.85609
H          9.00290        1.54424       -5.40321
H         10.62610        3.12017       -7.09998
H         11.18692        1.66986       -6.24295
H         12.32508        4.43278       -5.59355
H         12.49953        4.31091       -8.00287
H         14.39291        5.26679       -7.23980
H         16.25600        4.28251       -6.28500
H         15.72011        2.68263       -6.77683
H         14.50068        4.41011       -4.52792
H         15.39502        2.87399       -4.34482
H         13.62468        1.79471       -5.56155
H         11.79485        2.20358       -3.85439
H         12.98152        3.29280       -3.13226
H         14.63206        1.37098       -2.92699
H         13.50066        0.31648       -3.79052
H         11.82262        0.61022       -1.93755
H         12.95224        1.65275       -1.07370
H         14.60285       -0.24210       -0.93481
H         13.48551       -1.28451       -1.81202
H         12.92029       -0.00598        0.94400
H         13.32821       -1.70567        0.65090
H         11.79081       -1.05052        0.05978
H         12.25394        1.80084       -8.23843
H         13.95411        1.60514       -7.81811
H         11.57775        2.95737      -10.33225
H         12.18494        3.45193      -12.68279
H         14.56386        3.32586      -13.41250
H         16.32880        2.68931      -11.77451
H         15.72476        2.20201       -9.42007
