58

C          0.16638        0.06550       -0.30818
C          1.64700       -0.06657        0.05658
C          2.52501       -0.40240       -1.15590
C          3.99345       -0.54719       -0.79722
O          4.72325       -0.85014       -2.00290
C          6.10794       -1.02691       -1.78594
C          6.72986       -1.20990       -3.14857
C          6.64856       -0.18954       -4.10940
C          7.19481       -0.36752       -5.38987
C          7.17394        0.72596       -6.41865
C          8.00327        1.93891       -5.96026
O          8.22035        2.20490       -4.79463
O          8.41004        2.64360       -7.01975
C          9.16574        3.87406       -6.73461
C          9.44877        4.56043       -8.05627
C         10.25319        5.85457       -7.86496
C         10.53471        6.57475       -9.18609
C          7.81433       -1.57338       -5.67824
N          7.87503       -2.56667       -4.74035
C          7.33966       -2.40149       -3.48761
C          8.48223       -3.79935       -5.04032
N          8.57659       -4.82469       -4.25298
N          9.23756       -5.79858       -4.97228
C          9.49930       -5.28354       -6.15594
O          9.03150       -3.97583       -6.27033
S         10.31643       -6.07250       -7.44675
C         10.29843       -4.79975       -8.77277
C         10.96921       -5.40609      -10.00351
H         -0.44111        0.30268        0.57501
H         -0.22408       -0.86799       -0.73911
H          0.00557        0.86472       -1.04643
H          1.76820       -0.84803        0.82508
H          1.99884        0.87132        0.51741
H          2.42296        0.38442       -1.92111
H          2.18028       -1.34036       -1.62029
H          4.14457       -1.36194       -0.06369
H          4.39299        0.38468       -0.35285
H          6.31712       -1.90172       -1.14048
H          6.55823       -0.13918       -1.29588
H          6.14935        0.74434       -3.85386
H          6.14299        1.08584       -6.56834
H          7.53191        0.38085       -7.39608
H         10.08566        3.58783       -6.20398
H          8.56028        4.49486       -6.05858
H          8.49497        4.78373       -8.56076
H         10.00142        3.87038       -8.71402
H         11.20556        5.62265       -7.35999
H          9.70546        6.52960       -7.18687
H         11.11085        5.93903       -9.87419
H         11.11235        7.49341       -9.02086
H          9.60155        6.85581       -9.69536
H          8.27492       -1.79483       -6.63749
H          7.43127       -3.26193       -2.82692
H         10.84138       -3.91738       -8.41010
H          9.25403       -4.52953       -8.97537
H         12.00634       -5.70160       -9.79716
H         10.98572       -4.65888      -10.80758
H         10.42339       -6.28471      -10.37146
