74

C          7.98400      -10.50362        6.22434
C          7.88748      -10.38933        4.70127
C          8.25790       -8.99840        4.17488
C          8.16255       -8.87155        2.65133
C          8.55174       -7.48353        2.13131
C          8.46591       -7.36485        0.60511
C          8.88595       -5.99501        0.10209
O          8.76460       -5.97755       -1.33448
C          9.20069       -4.77831       -1.94729
C         10.67302       -4.90212       -2.37037
O         11.06586       -3.73064       -3.06068
C         12.49120       -3.65653       -3.20878
C         12.86231       -2.30577       -3.80836
C         12.48726       -1.12484       -2.90552
C         12.90228        0.22854       -3.49074
C         12.51066        1.41257       -2.60138
C         12.91709        2.77355       -3.17771
C         12.51426        3.95084       -2.28675
C         12.95384       -4.80852       -4.09475
N         12.45521       -6.14934       -3.57248
C         10.98198       -6.16392       -3.20244
C         10.28460       -6.44472       -4.55308
O         10.95212       -6.85371       -5.49647
O          8.98399       -6.26592       -4.52091
C          8.22055       -6.62345       -5.74171
C          7.86085       -8.09871       -5.75715
C          7.01415       -8.44663       -6.99163
C          6.65974       -9.93367       -7.06145
H          7.71633      -11.51111        6.57008
H          7.30845       -9.79215        6.72145
H          9.00381      -10.29142        6.57759
H          6.86350      -10.63898        4.37638
H          8.54403      -11.14161        4.23199
H          9.28347       -8.74840        4.49932
H          7.60223       -8.24486        4.64520
H          7.13366       -9.10656        2.32749
H          8.80898       -9.63283        2.17947
H          9.57750       -7.24663        2.46432
H          7.89971       -6.72456        2.59608
H          7.43733       -7.56509        0.26580
H          9.10525       -8.13004        0.13339
H          9.92944       -5.77799        0.40547
H          8.24529       -5.20123        0.52805
H          9.11557       -3.90817       -1.27513
H          8.57258       -4.59370       -2.82807
H         11.28192       -4.99945       -1.44483
H         12.95118       -3.75279       -2.20196
H         12.36942       -2.20787       -4.79005
H         13.94886       -2.30081       -3.99878
H         12.96315       -1.25875       -1.91834
H         11.40085       -1.13476       -2.72856
H         12.44274        0.35238       -4.48675
H         13.99359        0.23872       -3.65724
H         12.96906        1.28789       -1.60458
H         11.41925        1.39819       -2.43526
H         12.46235        2.89349       -4.17547
H         14.00801        2.78804       -3.33960
H         11.42487        3.98483       -2.13741
H         12.81820        4.90950       -2.72743
H         12.98162        3.87970       -1.29355
H         14.04745       -4.87770       -4.15359
H         12.54324       -4.70785       -5.10726
H         13.02786       -6.46742       -2.78292
H         12.51231       -6.82450       -4.36653
H         10.80529       -7.04577       -2.56638
H          8.82498       -6.33445       -6.61107
H          7.33526       -5.98031       -5.67331
H          7.31039       -8.34904       -4.83677
H          8.78235       -8.70198       -5.76403
H          7.56135       -8.15518       -7.90304
H          6.09004       -7.84627       -6.98245
H          7.56293      -10.55916       -7.10832
H          6.05890      -10.15263       -7.95335
H          6.07903      -10.24963       -6.18300
