37

I          0.54638        1.02316       -0.50130
C          2.65423        0.60107       -0.20362
C          3.19699       -0.60119       -1.03223
C          2.25573       -1.76174       -1.42292
C          3.00502       -3.00976       -1.90962
C          2.06404       -4.16525       -2.28904
C          1.35517       -3.96003       -3.63325
S          0.08933       -5.22715       -3.86185
O          0.72263       -6.52418       -3.97073
O         -0.96299       -4.96887       -2.91224
O         -0.47691       -4.81914       -5.32957
C          3.83351        0.08221       -2.18276
N          3.96090        1.35271       -1.99817
C          3.50017        1.81920       -0.66088
N          4.64188        2.03959        0.21572
C          5.71160        2.83296       -0.40502
C          4.19392        2.67223        1.46848
H          2.75793        0.42715        0.86799
H          4.03205       -1.04718       -0.45106
H          1.53094       -1.40605       -2.17051
H          1.66651       -2.01792       -0.53002
H          3.67665       -3.35574       -1.10772
H          3.65645       -2.77355       -2.77000
H          1.31328       -4.29873       -1.49448
H          2.64019       -5.09940       -2.33367
H          2.04767       -4.04235       -4.48247
H          0.81472       -3.00525       -3.70028
H         -0.22493       -5.53531       -5.94479
H          4.15745       -0.38151       -3.11767
H          4.36323        1.98898       -2.68848
H          2.89314        2.73294       -0.83256
H          6.18318        2.28066       -1.22944
H          6.49057        3.00742        0.34573
H          5.36874        3.82177       -0.77348
H          3.41466        2.07350        1.95457
H          3.79797        3.69403        1.30979
H          5.04863        2.72944        2.15223
