27

O          3.12122       -1.34605       -1.50516
C          2.64778       -0.45731       -0.49080
C          2.98433       -1.08854        0.86845
C          4.48453       -1.21010        1.04851
C          5.17722       -0.03307        1.38516
C          6.56403       -0.00120        1.46420
C          7.26866       -1.13621        1.11343
N          6.61725       -2.28633        0.81329
C          5.24065       -2.38318        0.84835
C          4.59955       -3.78843        0.74863
C          4.20998       -4.22935       -0.69405
F          5.36165       -4.19051       -1.46000
F          3.76309       -5.50046       -0.65511
F          5.44031       -4.72248        1.29036
F          3.47168       -3.81454        1.51267
N          7.48303       -3.31451        0.37589
H          2.89495       -0.98436       -2.37642
H          1.55490       -0.32595       -0.54902
H          3.12071        0.53657       -0.58695
H          2.46299       -2.04333        0.95239
H          2.58883       -0.43372        1.65782
H          4.60242        0.87341        1.58158
H          7.10686        0.90374        1.73214
H          8.35050       -1.18996        1.01084
H          3.46408       -3.55654       -1.14296
H          7.82485       -3.83639        1.18680
H          6.97843       -3.94438       -0.25090
