66

C          0.74425       -0.94981        0.15624
C          2.18288       -0.45880        0.33505
C          2.85737       -0.07715       -0.98806
C          4.28819        0.43147       -0.78199
N          4.93722        0.85066       -2.02567
C          5.83572        0.08532       -2.68762
O          6.23812       -1.00951       -2.29100
C          6.36456        0.69086       -4.01415
C          7.87114        0.80467       -3.97270
C          8.37546        2.08348       -3.77569
C          9.73420        2.33454       -3.52043
C         10.61858        1.28407       -3.41094
C         10.18723       -0.04425       -3.62855
C          8.79914       -0.30216       -3.97650
C          8.45565       -1.64185       -4.33331
N          9.40508       -2.58601       -4.21354
C         10.68396       -2.39089       -3.78317
C         11.12427       -1.12566       -3.49771
C         12.56194       -0.95168       -3.08723
C         13.50976       -0.55667       -4.24198
C         14.89020       -1.20689       -4.02574
O         14.97816       -2.34783       -3.57983
N         15.94711       -0.42566       -4.40240
C         17.33381       -0.71806       -4.39898
C         18.19906        0.33114       -4.75185
C         19.57636        0.12730       -4.77482
C         20.10552       -1.12455       -4.44711
C         19.24160       -2.16492       -4.09822
C         17.85769       -1.97787       -4.06877
C          7.19303       -2.15124       -4.97972
C          7.11479       -1.77113       -6.47023
C          8.26382       -2.25613       -7.33943
Br         8.64091       -4.18304       -7.19256
Br         5.37950       -2.38740       -7.16177
H          0.29077       -1.20910        1.12190
H          0.70257       -1.84532       -0.48095
H          0.11285       -0.17988       -0.31089
H          2.78102       -1.23834        0.83548
H          2.19276        0.41246        1.01147
H          2.26076        0.70063       -1.49562
H          2.88144       -0.94627       -1.66566
H          4.92131       -0.35416       -0.34899
H          4.29679        1.28908       -0.09185
H          4.62788        1.71462       -2.45819
H          5.94843        1.69323       -4.17657
H          5.98088        0.06723       -4.83111
H          7.68048        2.92410       -3.78999
H         10.07527        3.35972       -3.37506
H         11.65901        1.47258       -3.15501
H          9.15531       -3.52177       -4.54867
H         11.30988       -3.27887       -3.71502
H         12.93128       -1.91651       -2.70865
H         12.64668       -0.23423       -2.25914
H         13.57617        0.53390       -4.36793
H         13.12750       -0.96220       -5.19308
H         15.71782        0.50947       -4.72527
H         17.78785        1.31161       -5.00635
H         20.23711        0.95064       -5.04752
H         21.18326       -1.28620       -4.46291
H         19.64411       -3.14510       -3.84072
H         17.18911       -2.78738       -3.79031
H          6.31421       -1.80608       -4.43282
H          7.17410       -3.24798       -4.90490
H          7.07535       -0.67850       -6.59278
H          9.19910       -1.75602       -7.05532
H          8.06627       -2.07805       -8.40005
