38

C          1.91417        1.36406        0.01553
C          3.36807        1.43345        0.48833
C          3.72952        0.34461        1.50564
C          5.19543        0.39356        1.94648
C          5.56909       -0.63680        3.01780
C          7.06016       -0.59993        3.36728
C          7.46424       -1.45749        4.56886
C          8.93238       -1.35332        4.93462
O          9.22688        0.03223        5.37743
C         10.21937        0.67915        4.82540
S          9.64359        1.58318        2.92560
C          8.68410        3.14281        3.56521
C          7.82457        3.72151        2.40294
F          7.22466        4.84607        2.85319
F          8.65649        4.03058        1.37062
F          7.88784        2.68200        4.55086
F          9.54471        4.03261        4.05970
Br        11.55897        2.39335        2.31397
H          1.68473        2.17307       -0.69037
H          1.21444        1.45133        0.85928
H          1.70456        0.41155       -0.49231
H          3.56151        2.42339        0.93709
H          4.04252        1.35671       -0.38177
H          3.51360       -0.64819        1.07505
H          3.07730        0.43973        2.39077
H          5.41158        1.40517        2.34203
H          5.84551        0.26094        1.06289
H          5.30129       -1.65010        2.67453
H          4.97352       -0.45252        3.92741
H          7.31977        0.45422        3.58753
H          7.65194       -0.89411        2.48251
H          7.26260       -2.52197        4.36470
H          6.85933       -1.19560        5.45113
H          9.60158       -1.59179        4.09260
H          9.19081       -1.98244        5.79636
H         11.04470        0.10377        4.38044
H         10.49680        1.59137        5.36430
H          7.06365        2.99535        2.06829
