66

C          1.48413       -0.15565        2.07644
Si         3.27376        0.07605        1.55449
O          3.55409        1.72876        1.27407
C          2.71607        2.51190        0.45780
C          3.54170        3.72429       -0.00150
N          2.75132        4.93988       -0.32381
C          2.54074        6.00015        0.70546
O          3.57553        6.97999        0.50650
C          3.34232        7.69836       -0.66985
N          2.85837        6.78374       -1.72812
C          2.79655        5.44691       -1.58072
N          2.76889        4.66955       -2.67906
C          2.12579        3.35190       -2.80902
C          1.35220        3.23640       -4.13074
C          0.72484        1.86431       -4.24690
C         -0.54551        1.61592       -3.70692
C         -1.10600        0.33835       -3.76830
C         -0.40055       -0.70735       -4.37028
C          0.86519       -0.46945       -4.91214
C          1.42434        0.80883       -4.84910
C          2.55823        5.55012        2.15709
C          1.21015        4.99354        2.65639
C          1.31668        4.36592        4.03036
C          0.62467        4.91360        5.11789
C          0.71666        4.33671        6.38793
C          1.50526        3.20159        6.58542
C          2.20256        2.64783        5.50711
C          2.11056        3.22550        4.24000
C          4.47655       -0.34890        2.91911
C          3.62857       -0.86470       -0.03332
H          1.24552        0.44100        2.96808
H          1.29143       -1.21074        2.31826
H          0.78410        0.12635        1.27674
H          1.82593        2.85541        1.01292
H          2.34564        1.94377       -0.41339
H          4.15532        3.47443       -0.87570
H          4.24290        3.97953        0.80348
H          1.56420        6.46121        0.46918
H          4.29741        8.15537       -0.96744
H          2.57724        8.48649       -0.53565
H          2.58400        7.19206       -2.61629
H          3.07836        5.10503       -3.54389
H          1.43778        3.22788       -1.96287
H          2.87996        2.55242       -2.75128
H          2.03982        3.40645       -4.97555
H          0.57899        4.01887       -4.17162
H         -1.10768        2.43259       -3.24703
H         -2.09926        0.16118       -3.35469
H         -0.84073       -1.70325       -4.42544
H          1.41585       -1.27846       -5.39325
H          2.40968        0.98984       -5.28538
H          2.81594        6.44464        2.74117
H          3.36840        4.83365        2.34377
H          0.81736        4.25069        1.94291
H          0.47065        5.80816        2.68283
H          0.00256        5.79928        4.97039
H          0.16844        4.77410        7.22307
H          1.57679        2.74876        7.57469
H          2.82125        1.76150        5.65532
H          2.66770        2.78135        3.41175
H          4.26471        0.23583        3.82487
H          5.51143       -0.14243        2.61418
H          4.40800       -1.41385        3.18167
H          2.95401       -0.56937       -0.85036
H          3.49124       -1.94454        0.12266
H          4.66385       -0.70378       -0.36448
