37

C          2.74255        0.11683        1.19432
C          3.19541       -0.21615       -0.22938
C          4.07034        0.88943       -0.84150
C          4.50028        0.53249       -2.25332
O          5.26971        1.63582       -2.87295
C          6.57842        1.63704       -2.67138
O          7.24998        0.82141       -2.06041
N          7.12587        2.77624       -3.30368
C          8.44793        3.11541       -3.29630
N          9.32574        2.31246       -2.70595
N          8.82058        4.25347       -3.92373
C          7.85258        5.16343       -4.50228
C          7.05179        5.94121       -3.65831
C          6.13413        6.82918       -4.22463
C          6.03607        6.94300       -5.61354
C          6.85152        6.16865       -6.44573
C          7.76437        5.27037       -5.89356
N         10.17004        4.58057       -4.10024
H          2.12292       -0.68878        1.60833
H          2.14648        1.04059        1.21883
H          3.60177        0.25523        1.86643
H          2.31319       -0.38132       -0.86943
H          3.75555       -1.16541       -0.22707
H          4.96202        1.04459       -0.21316
H          3.51376        1.83997       -0.86163
H          3.64647        0.41763       -2.93140
H          5.12250       -0.37107       -2.28558
H          6.48485        3.40724       -3.78346
H          8.93731        1.47630       -2.24595
H         10.30162        2.57215       -2.63909
H          7.15629        5.86024       -2.57512
H          5.50758        7.44264       -3.57737
H          5.32523        7.64402       -6.05088
H          6.77667        6.26504       -7.52874
H          8.41210        4.66757       -6.53047
H         10.70368        3.83367       -4.54457
H         10.60669        4.93206       -3.24684
