34

C          0.96777        0.27579       -0.20920
C          2.47194       -0.00590       -0.19365
C          3.25330        0.89284       -1.16455
C          4.73251        0.55995       -1.15326
O          5.43804        1.49206       -2.05720
C          6.45705        0.98765       -2.77985
O          6.88401       -0.13919       -2.79586
C          7.02557        2.08847       -3.62294
N          8.02901        1.96027       -4.44984
N          8.20956        3.20680       -4.99162
C          7.30695        4.09775       -4.50402
N          7.22744        5.39081       -4.83112
N          6.55228        3.39280       -3.62627
C          9.38958        3.46605       -5.82680
C          9.10578        3.89789       -7.25012
C          7.82087        3.72331       -7.93856
O          8.21527        5.02478       -7.41652
H          0.43815       -0.37804        0.49526
H          0.53903        0.10509       -1.20735
H          0.75048        1.31571        0.07488
H          2.65211       -1.06270       -0.44976
H          2.86450        0.13255        0.82711
H          3.10779        1.95074       -0.89057
H          2.86125        0.76650       -2.18705
H          4.94252       -0.46171       -1.49420
H          5.18353        0.70208       -0.16018
H          7.57062        5.63124       -5.77524
H          6.50853        5.97334       -4.41734
H          5.75835        3.72333       -3.08250
H          9.95444        2.52533       -5.82360
H         10.00164        4.23284       -5.32460
H         10.01596        3.96108       -7.85645
H          6.97985        3.25150       -7.42337
H          7.80313        3.66427       -9.02847
