63

C          6.08140        0.55008        3.55618
C          5.13110        1.01886        4.66408
C          3.96195        0.05838        4.93416
C          4.40890       -1.24873        5.60565
N          3.31529       -2.23517        5.69966
C          3.08520       -3.08157        4.67484
S          4.02790       -3.16058        3.29377
S          1.64366       -4.14486        4.95365
C          1.56103       -5.09449        3.41450
C          0.54064       -4.58248        2.39109
C          0.76204       -3.09181        2.01995
C         -0.00496       -2.68800        0.82446
N          0.32224       -2.91118       -0.45889
C          1.56752       -3.47665       -0.99732
C          2.36415       -2.45560       -1.81557
C          2.95479       -1.32027       -0.99224
F          3.73571       -1.78320        0.01684
F          3.70108       -0.50236       -1.75816
F          1.97596       -0.55489       -0.41123
N         -0.62431       -2.45140       -1.32683
C         -1.54700       -1.94046       -0.55397
N         -1.21008       -2.05458        0.77307
C         -2.01854       -1.57732        1.90920
C         -2.61325       -2.68392        2.73138
C         -2.54440       -2.80403        4.06217
Br        -1.62394       -1.59585        5.18175
Br        -3.61704       -3.97470        1.75348
C          2.47561       -2.17785        6.91173
C          2.85375       -3.17763        8.01646
C          4.25993       -3.01633        8.60468
C          4.52104       -3.98136        9.76392
H          6.86800        1.29461        3.37532
H          5.54061        0.39660        2.61077
H          6.58053       -0.39717        3.80363
H          4.71387        2.00031        4.39159
H          5.69467        1.18473        5.59785
H          3.46231       -0.18725        3.98340
H          3.21466        0.55466        5.57402
H          4.76186       -1.05325        6.62671
H          5.22531       -1.71836        5.04490
H          1.30829       -6.12068        3.71308
H          2.58470       -5.08031        3.00291
H         -0.48530       -4.71469        2.76226
H          0.62833       -5.21056        1.48941
H          1.83803       -2.90782        1.85492
H          0.48283       -2.45626        2.87195
H          1.28614       -4.32242       -1.63684
H          2.15188       -3.85838       -0.15201
H          1.74117       -2.02069       -2.60824
H          3.20115       -2.97937       -2.29709
H         -2.46609       -1.48306       -0.90555
H         -2.81007       -0.94778        1.47849
H         -1.39068       -0.93902        2.54627
H         -3.03902       -3.60309        4.60991
H          1.42617       -2.32820        6.61429
H          2.55094       -1.14853        7.29147
H          2.72717       -4.20414        7.63781
H          2.10420       -3.05491        8.81689
H          4.39909       -1.97821        8.95225
H          5.01275       -3.18423        7.81742
H          3.81541       -3.81433       10.59065
H          5.53619       -3.85764       10.16319
H          4.41612       -5.02809        9.44354
