53

O          3.87225        0.76592       -0.46579
C          4.84284       -0.24780       -0.23836
C          4.19412       -1.27499        0.68011
O          5.15295       -2.32448        0.86568
C          4.76929       -3.30355        1.81224
O          5.86634       -4.15681        2.03410
C          6.14051       -5.10246        1.01550
C          7.41040       -4.78878        0.25759
C          7.83925       -3.44862        0.13261
N          8.92325       -3.06031       -0.52712
N          9.65544       -4.02548       -1.08529
C          9.36394       -5.33366       -0.99808
C          8.21798       -5.78046       -0.32885
C          7.91837       -7.25177       -0.28862
C          6.78117       -7.65816       -1.25446
C          6.41915       -9.13945       -1.07884
S          4.78509       -9.55949       -1.73191
C          3.72609       -8.96029       -0.44723
S          4.21876       -8.39145        1.02196
N          2.38023       -9.06005       -0.80302
C          1.83547       -9.24760       -2.08608
N          0.53345       -9.26130       -2.05948
C          0.18044       -9.08978       -0.72314
C          1.28656       -8.95228        0.06361
C         10.89215       -3.56873       -1.74633
C         12.11973       -3.75002       -0.86302
C         12.07383       -3.79409        0.60331
O         12.22888       -5.00288       -0.18271
H          4.27452        1.47338       -0.99128
H          5.75093        0.15196        0.24937
H          5.14768       -0.74475       -1.17882
H          3.26727       -1.66416        0.22301
H          3.93648       -0.81129        1.64854
H          3.89268       -3.87708        1.44490
H          4.54185       -2.84448        2.78890
H          5.30271       -5.17686        0.29640
H          6.22618       -6.09374        1.48996
H          7.25448       -2.64352        0.57953
H         10.06914       -6.01507       -1.47129
H          7.61926       -7.53304        0.73402
H          8.83296       -7.81752       -0.51904
H          7.07153       -7.45460       -2.29575
H          5.89159       -7.04921       -1.04543
H          6.41389       -9.42238       -0.01587
H          7.10989       -9.80316       -1.61793
H          2.45954       -9.32710       -2.97121
H         -0.86062       -9.07874       -0.41594
H          1.42996       -8.80928        1.12654
H         10.74353       -2.51080       -1.99108
H         11.01156       -4.14324       -2.67550
H         13.03645       -3.40392       -1.35459
H         11.12113       -3.70096        1.13177
H         12.95896       -3.49892        1.17160
