82

C          9.15624       -0.65955       -4.01846
C          8.40359       -0.23716       -2.75451
C          9.18745       -0.51424       -1.46694
C          8.42909       -0.14018       -0.18945
C          9.23211       -0.39899        1.08900
C          8.46754       -0.06267        2.37303
C          9.28041       -0.33790        3.64351
C          8.49054       -0.02154        4.92022
C          9.16153       -0.47529        6.24685
C         10.56424        0.13844        6.46735
C         10.65732        1.65272        6.22977
O          9.68061        2.39652        6.96516
C         10.11206        2.88328        8.24040
C          8.87583        3.32125        8.99140
O          8.09300        2.14814        9.25153
C          6.82633        2.40683        9.87782
C          5.70733        2.66417        8.88444
O          5.48686        1.47131        8.13689
C          4.47150        1.62301        7.14705
N          8.25668       -0.04045        7.34818
C          7.40552       -0.91476        7.79052
S          7.55786       -2.49354        7.19104
C          9.15761       -2.04765        6.33318
C         10.33167       -2.74839        7.01931
C         10.28920       -4.27713        6.87260
P         11.93929       -5.01038        7.14177
O         13.01402       -4.29352        6.40935
O         11.99787       -5.01522        8.74160
C         13.18653       -5.53040        9.42853
C         14.18062       -4.42294        9.72355
O         11.78017       -6.56297        6.77064
C         12.43767       -7.13811        5.59497
C         13.50111       -8.12606        6.03019
H          8.57701       -0.43857       -4.92509
H          9.36732       -1.73928       -4.01473
H         10.11979       -0.13572       -4.10454
H          7.43389       -0.76125       -2.70953
H          8.16309        0.83809       -2.80826
H         10.14488        0.03511       -1.49877
H          9.45672       -1.58477       -1.42892
H          7.48255       -0.70735       -0.14789
H          8.14138        0.92499       -0.23120
H         10.16830        0.18519        1.05681
H          9.53969       -1.45930        1.11731
H          7.53172       -0.64734        2.40687
H          8.16220        0.99775        2.35538
H         10.21134        0.25067        3.61074
H          9.59824       -1.39471        3.63591
H          7.50137       -0.50613        4.86369
H          8.29242        1.05911        4.98191
H         11.27571       -0.34301        5.78091
H         10.90383       -0.10623        7.48445
H         10.48336        1.89267        5.17160
H         11.67702        1.99248        6.47532
H         10.80036        3.73810        8.11646
H         10.63344        2.09508        8.81316
H          8.30937        4.04711        8.38193
H          9.16265        3.80553        9.94153
H          6.91047        3.25532       10.57734
H          6.59339        1.50690       10.46656
H          5.96035        3.49932        8.20284
H          4.79367        2.95290        9.43968
H          4.39150        0.66621        6.61702
H          4.73189        2.41661        6.42493
H          3.49595        1.86272        7.60380
H          8.24171        0.93798        7.69846
H          6.61958       -0.61359        8.48576
H          9.05415       -2.44575        5.31489
H         10.39537       -2.46781        8.08152
H         11.25798       -2.39675        6.53916
H         10.02391       -4.55693        5.83983
H          9.56164       -4.75536        7.54391
H         13.63478       -6.32887        8.81818
H         12.79629       -5.98616       10.34779
H         14.57378       -3.98746        8.79636
H         15.02277       -4.83151       10.29996
H         13.71477       -3.62767       10.32088
H         12.86637       -6.32368        4.99460
H         11.63900       -7.63060        5.02286
H         14.31626       -7.61776        6.56293
H         13.93121       -8.61966        5.14728
H         13.07769       -8.90024        6.68348
