55

C          6.79074        2.92010        4.56368
C          6.16315        2.79539        3.39213
C          6.88730        2.59527        2.08936
N          6.32938        1.42605        1.32726
N          5.41847        1.80839        0.43042
C          4.82031        0.85018       -0.26216
C          5.10247       -0.51013       -0.09261
C          6.05563       -0.89749        0.84217
C          6.68607        0.14030        1.58402
C          7.75465       -0.12421        2.59637
C          9.19017       -0.07440        1.97475
C         10.22501        0.00398        3.03575
C         11.12879       -0.93171        3.35379
F         11.21264       -2.09722        2.72113
F         12.03177       -0.80946        4.30341
F         10.21398        1.15971        3.75796
C          6.41429       -2.34202        1.08159
C          5.66868       -3.37308        0.23115
C          6.11408       -4.80913        0.53026
C          5.31501       -5.85321       -0.25664
C          5.79585       -7.29031       -0.03087
C          4.93462       -8.33700       -0.74494
C          5.43708       -9.77262       -0.56249
C          4.53728      -10.82441       -1.22105
C          5.05922      -12.25456       -1.06291
H          6.23782        3.12603        5.47978
H          7.87765        2.84806        4.65059
H          5.07598        2.88975        3.32298
H          7.96306        2.44946        2.23616
H          6.73234        3.44355        1.41124
H          4.08519        1.20631       -0.98489
H          4.57540       -1.24884       -0.69463
H          7.59669       -1.11559        3.03656
H          7.68353        0.59810        3.41696
H          9.28863        0.80611        1.31822
H          9.36952       -0.95720        1.34844
H          6.24792       -2.56410        2.15111
H          7.50206       -2.46294        0.93434
H          5.82896       -3.16462       -0.84041
H          4.58319       -3.28791        0.41042
H          6.01157       -5.00891        1.61089
H          7.18866       -4.91395        0.30109
H          5.36530       -5.61786       -1.33428
H          4.24908       -5.77579        0.02053
H          5.80845       -7.50700        1.05185
H          6.84272       -7.38144       -0.36965
H          4.88910       -8.10112       -1.82282
H          3.89618       -8.26385       -0.37672
H          5.52742       -9.99512        0.51564
H          6.45886       -9.85660       -0.97335
H          4.42682      -10.58801       -2.29331
H          3.52370      -10.75175       -0.79087
H          6.04861      -12.37264       -1.53033
H          4.38334      -12.98275       -1.53137
H          5.16050      -12.52984       -0.00230
