87

C          1.47035       -3.14600        1.71306
C          2.15261       -2.19913        0.74867
O          3.51829       -1.97297        1.22438
P          4.49169       -1.00234        0.39675
O          4.71033       -1.31797       -1.03676
O          3.88702        0.45416        0.69870
C          3.92761        1.51484       -0.30893
C          5.20943        2.32022       -0.21802
C          6.00278       -1.13952        1.41118
C          6.76661       -2.43288        1.09415
C          8.10649       -2.50307        1.85627
C          9.03184       -3.59882        1.37151
N          8.35766       -4.75071        1.03679
C          8.87040       -5.89481        0.55991
C          7.92688       -7.03615        0.40677
C          7.93201       -7.95726        1.67252
O          6.95322       -8.94294        1.53570
Si         7.28902      -10.58750        1.25908
C          8.34206      -10.72929       -0.29730
C          8.22247      -11.27814        2.73282
C          5.60742      -11.36645        1.04927
C         10.26423       -5.93398        0.33515
C         11.06373       -4.77490        0.66371
C         10.41202       -3.60612        1.21449
C         11.23460       -2.40226        1.69847
C         11.75060       -1.32811        0.63200
C         10.70458       -0.54203       -0.27352
C         10.05666        0.78753        0.30175
C         10.91971        2.12840        0.19965
C         10.55392        3.16672       -0.94622
C          9.15734        3.93630       -1.00940
C          8.54218        4.47441        0.33025
F          9.41656        5.25487        0.98236
F          7.44177        5.18882        0.04727
F          8.18408        3.44520        1.13232
F          9.36739        5.00671       -1.81490
F          8.22935        3.14438       -1.59895
F         11.51374        4.11957       -0.84921
F         10.69235        2.52694       -2.13708
F         10.84730        2.76297        1.39152
F         12.22013        1.80200       -0.01786
F          8.89263        0.95823       -0.37599
F          9.74023        0.57771        1.60651
F         11.29036       -0.25425       -1.45372
F          9.67214       -1.40492       -0.53379
F         12.50690       -0.44448        1.32240
F         12.55828       -1.99628       -0.23829
F         10.56691       -1.72367        2.67417
F         12.38063       -2.85798        2.29784
C         12.45998       -4.87771        0.41668
C         13.01365       -6.02715       -0.11365
C         12.22165       -7.15150       -0.42979
C         10.86605       -7.10282       -0.20621
H          0.43833       -3.32768        1.38299
H          1.43649       -2.72180        2.72500
H          1.99008       -4.11266        1.75417
H          1.63639       -1.22795        0.70722
H          2.20370       -2.61490       -0.26866
H          3.04669        2.13095       -0.08844
H          3.80586        1.05859       -1.30084
H          5.35974        2.71530        0.79530
H          5.16412        3.17047       -0.91275
H          6.08114        1.71387       -0.49793
H          5.73175       -1.06442        2.47409
H          6.62014       -0.26255        1.16373
H          6.94490       -2.47365        0.00833
H          6.10608       -3.28233        1.34634
H          7.92486       -2.65255        2.93485
H          8.59982       -1.53576        1.77702
H          7.34249       -4.71108        1.15013
H          8.17436       -7.64061       -0.47401
H          6.89976       -6.66785        0.26697
H          7.70456       -7.33914        2.55919
H          8.94878       -8.36834        1.81610
H          9.32682      -10.25445       -0.17072
H          7.84298      -10.28088       -1.16779
H          8.53080      -11.78635       -0.53373
H          9.18747      -10.77479        2.88953
H          8.43478      -12.34640        2.58196
H          7.63311      -11.17966        3.65478
H          5.06998      -10.93560        0.19383
H          4.99385      -11.22058        1.94862
H          5.70343      -12.44818        0.87905
H         13.12049       -4.04936        0.63892
H         14.08898       -6.05921       -0.29150
H         12.68025       -8.04558       -0.85129
H         10.24249       -7.95990       -0.45569
