106

C         10.86652      -18.63133      -13.45141
C         10.82730      -17.13444      -13.76949
C         11.61026      -16.27465      -12.77044
C         11.56381      -14.77728      -13.08885
C         12.32826      -13.89896      -12.09282
C         12.25102      -12.40629      -12.42812
C         12.99275      -11.49630      -11.44351
C         12.86964      -10.01172      -11.80046
C         13.59618       -9.06284      -10.84179
C         13.42828       -7.59058      -11.23125
C         14.17174       -6.60600      -10.32335
C         13.98285       -5.14743      -10.75304
C         14.77813       -4.14699       -9.90781
C         14.59307       -2.70036      -10.37884
C         15.44998       -1.66743       -9.63890
N         16.89448       -1.93935       -9.79469
C         17.62014       -1.70057      -10.93562
N         18.84850       -2.13925      -10.82259
N         18.90129       -2.67278       -9.57093
C         17.72735       -2.56828       -8.92083
C         17.40727       -3.00944       -7.53884
C         18.06209       -2.14863       -6.42231
C         17.70097       -0.65913       -6.57915
C         18.39537        0.27139       -5.58145
C         17.65284       -2.73532       -5.06612
C         20.22373       -3.22678       -9.09595
O         20.08791       -4.33135       -8.29337
C         19.76891       -5.57675       -8.97507
C         19.85056       -6.70139       -7.95716
C         18.86379       -6.56628       -6.79023
C         18.99640       -7.67582       -5.74148
C         18.03036       -7.51225       -4.56274
C         18.18251       -8.59152       -3.48514
C         17.19317       -8.44524       -2.32386
C         17.34263       -9.52726       -1.24883
C         16.33457       -9.39977       -0.10188
C         16.46388      -10.50046        0.95760
C         15.45433      -10.36528        2.10058
H         10.29413      -19.21419      -14.18612
H         10.44127      -18.84022      -12.45834
H         11.89807      -19.01420      -13.45505
H          9.77909      -16.79101      -13.79650
H         11.22535      -16.96258      -14.78409
H         12.66158      -16.61245      -12.74341
H         11.21354      -16.44550      -11.75385
H         10.51039      -14.44749      -13.12604
H         11.96573      -14.60876      -14.10369
H         13.38593      -14.21506      -12.05979
H         11.93114      -14.06715      -11.07617
H         11.19052      -12.10100      -12.47133
H         12.65063      -12.24160      -13.44449
H         14.05932      -11.78104      -11.41014
H         12.60293      -11.66287      -10.42389
H         11.80054       -9.73775      -11.83669
H         13.25331       -9.85257      -12.82373
H         14.67079       -9.31714      -10.81621
H         13.22287       -9.21763       -9.81431
H         12.35366       -7.33800      -11.23507
H         13.77244       -7.45041      -12.27107
H         15.24948       -6.85096      -10.32342
H         13.83104       -6.73127       -9.28073
H         12.91118       -4.88864      -10.71452
H         14.28184       -5.03926      -11.81024
H         15.84615       -4.42659       -9.95350
H         14.48147       -4.23437       -8.84818
H         13.54378       -2.39174      -10.25209
H         14.79959       -2.62970      -11.45984
H         15.23433       -1.64938       -8.56401
H         15.27831       -0.65282      -10.02220
H         17.21657       -1.21267      -11.81707
H         17.72893       -4.05219       -7.42387
H         16.31608       -3.00054       -7.41380
H         19.15694       -2.25157       -6.51817
H         16.60565       -0.54390       -6.48990
H         17.96123       -0.32977       -7.60067
H         18.08364        0.07474       -4.54758
H         18.15693        1.32041       -5.79885
H         19.48892        0.16381       -5.62838
H         16.56903       -2.63511       -4.90067
H         18.16434       -2.22322       -4.24223
H         17.90774       -3.80172       -4.99823
H         20.71108       -2.43708       -8.50763
H         20.77662       -3.40189      -10.03385
H         20.48849       -5.72126       -9.79853
H         18.75413       -5.50503       -9.41022
H         20.88191       -6.75212       -7.57305
H         19.67300       -7.64649       -8.49547
H         17.82991       -6.55529       -7.18260
H         19.02481       -5.59443       -6.29456
H         20.03350       -7.69259       -5.36458
H         18.83192       -8.65693       -6.21909
H         16.99150       -7.51611       -4.93830
H         18.18250       -6.51844       -4.10334
H         19.21411       -8.57130       -3.09267
H         18.05571       -9.58635       -3.94683
H         16.16214       -8.46625       -2.71932
H         17.31775       -7.45044       -1.85976
H         18.36773       -9.49727       -0.83978
H         17.23530      -10.52136       -1.71769
H         15.30960       -9.41167       -0.51351
H         16.45254       -8.41363        0.38187
H         17.48841      -10.49299        1.36660
H         16.34134      -11.48382        0.47246
H         15.58089       -9.41258        2.63633
H         15.56644      -11.17517        2.83451
H         14.42001      -10.39818        1.72637
