84

S          1.45577       -0.20976       -0.86326
C          2.78028       -0.08078        0.12735
N          3.25399       -1.05203        0.96050
C          2.73076       -2.42420        0.88250
C          1.86229       -2.73374        2.09989
O          2.59197       -2.52590        3.31192
C          3.03113       -1.17821        3.40333
C          3.94357       -0.78907        2.23103
S          3.63215        1.48803        0.08843
C          5.42654        1.07042        0.12129
C          6.15976        1.95218       -0.89252
C          7.63083        1.55086       -1.03611
C          8.42911        2.43553       -2.02175
N          7.74459        2.60679       -3.30370
C          7.81231        1.46686       -4.19690
C          9.23953        0.92859       -4.45803
N          9.83687        0.64897       -3.06103
C          9.86486        1.89860       -2.20083
C         11.15179       -0.07907       -3.04479
C         11.09909       -1.41383       -3.79351
O         12.08089       -2.20866       -3.16982
C         12.48668       -3.35730       -3.89398
C         13.90671       -3.73756       -3.45957
C         15.09946       -2.91011       -4.06563
C         15.25378       -1.36663       -3.79907
C         15.45919       -0.91533       -2.32027
F         15.88377        0.37806       -2.33485
F         14.26906       -0.95481       -1.65008
F         16.36178       -0.98800       -4.48705
F         14.18331       -0.70015       -4.34107
F         16.25106       -3.48606       -3.62231
F         15.02889       -3.05667       -5.42092
F         14.01568       -3.71842       -2.09898
F         14.11512       -5.02237       -3.87953
C         10.13409        1.82854       -5.31111
C          9.76160        1.75879       -6.80149
C         10.68598        2.62091       -7.66575
C         10.30603        2.59221       -9.15622
N         11.19456        3.39790       -9.97098
C         11.08656        4.76189      -10.15997
C         12.19917        5.18828      -10.86013
C         13.01605        4.04685      -11.09623
C         12.37726        2.95884      -10.53285
H          3.59338       -3.11120        0.86150
H          2.15146       -2.51629       -0.04439
H          1.55780       -3.78849        2.09708
H          0.95703       -2.09873        2.08223
H          3.58133       -1.08888        4.35017
H          2.16313       -0.49081        3.42929
H          4.87662       -1.37591        2.26905
H          4.18061        0.27827        2.29963
H          5.51198        0.00788       -0.15010
H          5.84373        1.19877        1.13137
H          6.09592        3.01006       -0.58922
H          5.65821        1.88596       -1.86747
H          7.66458        0.48324       -1.33277
H          8.14032        1.59678       -0.06007
H          8.51988        3.43550       -1.57167
H          7.98560        3.48353       -3.75929
H          7.35206        1.73214       -5.15675
H          7.19620        0.64675       -3.78617
H          9.16170       -0.06371       -4.92824
H          9.15567        0.01691       -2.61014
H         10.51941        2.62018       -2.70393
H         10.32310        1.61494       -1.24372
H         11.38681       -0.28419       -1.99173
H         11.92764        0.58559       -3.43882
H         11.31280       -1.28494       -4.87010
H         10.09263       -1.87817       -3.70255
H         12.48392       -3.18379       -4.98299
H         11.84170       -4.22446       -3.66912
H         16.19811       -1.54058       -1.79652
H         11.19000        1.53419       -5.20656
H         10.07075        2.87329       -4.96806
H          8.71745        2.08225       -6.94630
H          9.80644        0.70880       -7.13919
H         11.72878        2.28117       -7.56034
H         10.66249        3.66581       -7.31714
H          9.27710        2.95947       -9.29457
H         10.33049        1.55984       -9.53772
H         10.22020        5.30628       -9.79717
H         12.39237        6.20530      -11.18529
H         13.95624        4.01966      -11.63720
H         12.65120        1.90888      -10.49999
