74

C          1.25521       -0.97932       -0.83617
C          2.74015       -1.32651       -0.70493
C          3.23456       -1.33333        0.74635
C          4.72694       -1.65282        0.88231
C          5.21874       -1.66321        2.33433
C          6.73067       -1.88970        2.45300
C          7.22368       -1.89200        3.90599
C          8.75418       -1.93516        3.96786
N          9.24965       -1.96343        5.36981
C          9.29984       -0.83835        6.09727
C          9.70747       -0.87816        7.43749
C          9.69692        0.34468        8.30875
C          8.30804        1.02500        8.44376
C          7.09373        0.10222        8.67632
C          7.23327       -0.98664        9.75176
C          7.72975       -0.52265       11.12524
C          7.97855       -1.71921       12.05809
O          9.15692       -1.53653       12.88573
C         10.34529       -1.79825       12.28824
O         10.44896       -2.16694       11.12183
C         11.46251       -1.57794       13.23238
C         12.73187       -1.79490       12.86943
C         10.06520       -2.12796        7.92845
C          9.95356       -3.26290        7.10325
N          9.54545       -3.17581        5.83063
C         10.21196       -4.65263        7.61496
C          9.25778       -4.98577        8.77187
O          7.95941       -4.58905        8.34990
C          6.89175       -4.98402        9.21805
C          5.61540       -4.47972        8.56546
O          5.45951       -4.98804        7.24456
H          0.93329       -0.98747       -1.88625
H          1.04007        0.02081       -0.43166
H          0.62610       -1.69878       -0.29152
H          3.34033       -0.60903       -1.28948
H          2.92890       -2.31518       -1.15607
H          2.64650       -2.06376        1.32901
H          3.03113       -0.34877        1.20332
H          5.30979       -0.91311        0.30572
H          4.93775       -2.63184        0.41830
H          4.68206       -2.44326        2.90094
H          4.95865       -0.70348        2.81436
H          7.25753       -1.10049        1.88875
H          7.00380       -2.84370        1.97203
H          6.81277       -2.75635        4.45165
H          6.86236       -0.98630        4.42188
H          9.19969       -1.05471        3.48422
H          9.15451       -2.84110        3.49939
H          9.00245        0.07715        5.58674
H         10.40959        1.08329        7.90759
H         10.07840        0.04800        9.29431
H          8.10831        1.63274        7.54718
H          8.39620        1.74792        9.26788
H          6.82276       -0.39700        7.73000
H          6.23559        0.74990        8.91460
H          7.90981       -1.77978        9.39457
H          6.25271       -1.47732        9.86307
H          7.01875        0.18007       11.58450
H          8.67698        0.02550       11.02268
H          8.11253       -2.64100       11.47377
H          7.16462       -1.86272       12.77756
H         11.19360       -1.23584       14.23223
H         12.97246       -2.14221       11.86350
H         13.55598       -1.63647       13.56385
H         10.38522       -2.23210        8.96919
H         11.25101       -4.73810        7.96802
H         10.07129       -5.35776        6.78656
H          9.54421       -4.44687        9.69499
H          9.29794       -6.06878        8.98344
H          7.01787       -4.53854       10.22317
H          6.87747       -6.08477        9.31692
H          5.62205       -3.37287        8.56241
H          4.74336       -4.81175        9.14640
H          6.33279       -4.92168        6.82243
