44

N         11.79763       -1.16665        0.42747
C         11.50892        0.20428        0.87016
C         10.00331        0.48832        0.81033
C          9.17961       -0.43433        1.71444
C          7.66963       -0.21698        1.57188
C          6.78846       -1.21580        2.34389
C          7.06236       -1.29531        3.85523
O          6.22464       -2.26853        4.52326
C          4.85058       -1.91764        4.58641
C          4.61802       -0.70708        5.48623
N          5.58441        0.53320        4.63339
C          6.99457        0.04284        4.60066
C          5.34861        1.84817        5.19575
C          6.06241        2.31437        6.30000
C          5.71657        3.57505        6.80378
N          4.75011        4.34555        6.29177
C          4.07757        3.87556        5.23154
C          4.33247        2.63282        4.64714
N          5.01369       -0.85801        6.77647
H         12.76099       -1.42030        0.64506
H         11.70581       -1.24025       -0.58721
H         12.04068        0.98457        0.29326
H         11.85580        0.29639        1.91227
H          9.65813        0.37882       -0.23297
H          9.82894        1.54376        1.07857
H          9.50291       -0.27752        2.75962
H          9.43410       -1.47888        1.47448
H          7.39578       -0.29527        0.50816
H          7.41048        0.81993        1.85623
H          6.93571       -2.23167        1.94764
H          5.72960       -0.97493        2.14265
H          8.07774       -1.68645        4.00795
H          4.32846       -2.78150        5.02049
H          4.41614       -1.73285        3.58891
H          3.63376       -0.23679        5.38009
H          5.20984        0.52141        3.67640
H          7.32378       -0.09291        5.63803
H          7.62788        0.80815        4.13330
H          6.87250        1.74849        6.75662
H          6.25470        3.98140        7.66394
H          3.29859        4.52355        4.82259
H          3.75893        2.30009        3.77864
H          5.77446       -1.49187        6.99663
H          4.73284       -0.20065        7.49289
