45

C          3.19370       -0.58603        6.80638
C          4.71340       -0.74639        6.73349
C          5.19908       -1.34710        5.40749
C          6.72166       -1.52798        5.37189
C          7.27014       -2.31087        4.16046
P          6.92236       -1.54427        2.54539
C          7.45512        0.18678        2.43162
C          7.04106        0.90233        1.13551
C          7.51353        2.36421        1.13582
C          7.10656        3.12160       -0.13320
C          7.61120        4.56915       -0.13503
C          7.18340        5.32010       -1.39508
O          7.71974        6.66087       -1.42116
C          6.98513        7.60709       -0.75358
O          5.95467        7.35677       -0.15559
C          7.63042        8.93563       -0.88075
C          7.07888       10.02222       -0.32914
I          7.82499       -2.88146        0.78669
H          2.89216       -0.14124        7.76337
H          2.68237       -1.55563        6.71736
H          2.81574        0.06670        6.00569
H          5.05851       -1.38889        7.56045
H          5.19959        0.23156        6.88662
H          4.86283       -0.69360        4.58052
H          4.70737       -2.32189        5.24383
H          7.04129       -2.09842        6.25851
H          7.22957       -0.55389        5.45142
H          6.84207       -3.32436        4.10082
H          8.36478       -2.42288        4.20527
H          5.52333       -1.56127        2.33116
H          8.54752        0.19033        2.57780
H          7.00417        0.67068        3.31658
H          5.94472        0.86432        1.02464
H          7.46655        0.37642        0.26629
H          8.61115        2.38855        1.24400
H          7.10398        2.88245        2.01920
H          6.00708        3.11459       -0.22589
H          7.49484        2.58909       -1.01866
H          8.71070        4.58659       -0.06452
H          7.21873        5.10206        0.74435
H          6.08699        5.37093       -1.46588
H          7.58705        4.84345       -2.29906
H          8.56241        8.97851       -1.44569
H          6.14287        9.94582        0.22639
H          7.54168       11.00426       -0.42092
