63

C          2.55800        2.01178        2.58417
C          4.08236        1.88303        2.58464
C          4.63585        1.27782        3.87829
C          6.16137        1.14725        3.89274
C          6.71382        0.55768        5.19423
C          8.24162        0.43294        5.20139
C          8.83962       -0.05811        6.52984
C          8.39733       -1.46073        6.98379
C          8.68587       -2.59829        5.98980
C         10.16357       -2.79713        5.61335
C         11.05077       -3.24744        6.78234
C         12.53855       -3.37233        6.41312
N         12.73469       -4.27213        5.25617
C         13.06898       -5.55506        5.35817
N         13.08313       -6.34351        4.23935
N         12.97701       -5.66932        2.96630
N         11.98243       -6.24477        2.14515
N         14.25085       -5.93367        2.30574
N         13.35872       -6.10460        6.54401
C         13.27118       -5.35356        7.80266
C         13.48488       -3.86169        7.53222
C         13.36982       -3.03861        8.83058
C         14.48670       -3.30392        9.79705
C         14.43144       -3.87718       11.00352
Br        12.83098       -4.53800       11.77554
Br        16.21746       -2.71657        9.21418
H          2.19068        2.45132        1.64687
H          2.21259        2.65164        3.40961
H          2.07533        1.03023        2.70315
H          4.53688        2.87561        2.42701
H          4.40184        1.26440        1.72879
H          4.18161        0.28371        4.03798
H          4.31513        1.89702        4.73440
H          6.61403        2.13990        3.72339
H          6.48189        0.52004        3.04172
H          6.24996       -0.42920        5.36417
H          6.39867        1.18962        6.04305
H          8.67908        1.41815        4.97075
H          8.55480       -0.22834        4.37407
H          8.57327        0.65675        7.32513
H          9.94052       -0.01962        6.45924
H          7.31509       -1.45647        7.18366
H          8.86712       -1.68241        7.95640
H          8.11974       -2.42233        5.06221
H          8.29322       -3.54199        6.40392
H         10.56788       -1.86201        5.18903
H         10.21157       -3.54809        4.80700
H         10.67872       -4.20759        7.17902
H         10.97433       -2.51849        7.60273
H         12.89631       -2.38537        6.07827
H         12.56909       -3.95357        4.30205
H         13.75262       -7.12162        4.21608
H         11.07330       -5.89565        2.44588
H         11.98761       -7.27067        2.20484
H         14.83854       -5.11074        2.47098
H         14.02720       -5.93123        1.30593
H         13.51171       -7.10700        6.58139
H         14.05035       -5.73171        8.47709
H         12.29527       -5.53687        8.28095
H         14.51212       -3.73732        7.15014
H         12.41750       -3.24713        9.34048
H         13.37780       -1.96728        8.57289
H         15.29621       -4.00592       11.64972
