34

C          1.12167        0.28658       -0.24372
N          2.55362       -0.06513       -0.17322
N          3.30728        1.01105        0.28491
N          3.17237        1.53006        1.56466
C          4.03961        2.49443        1.61261
N          4.74064        2.63256        0.42456
C          4.25834        1.66832       -0.42110
N          4.68195        1.46600       -1.67511
C          4.24868        0.41687       -2.60874
C          5.79203        3.61867        0.13773
C          5.38754        4.77113       -0.80266
C          4.26879        5.70964       -0.34225
C          4.50723        6.49746        0.98803
Br         6.17354        7.51264        0.98498
F          3.47583        7.31147        1.24534
F          4.56442        5.58699        2.01611
Br         3.91192        6.99272       -1.77652
F          3.11405        4.97022       -0.13182
C          2.81362       -1.27094        0.63665
H          0.98951        1.15772       -0.89740
H          0.69135        0.50143        0.74823
H          0.59695       -0.56792       -0.68689
H          4.21070        3.13832        2.46914
H          5.44170        2.06030       -1.98429
H          3.16662        0.45544       -2.76845
H          4.52552       -0.58165       -2.24944
H          4.75692        0.60890       -3.55948
H          6.64542        3.08611       -0.31035
H          6.13756        3.99440        1.10734
H          5.06346        4.38230       -1.77839
H          6.28771        5.37229       -0.98672
H          2.28570       -2.10551        0.16063
H          2.46402       -1.16512        1.67661
H          3.88872       -1.48883        0.63228
