80

C         12.79493       -6.90127        5.67546
C         12.26913       -5.77108        4.78801
C         12.67507       -4.37960        5.28295
C         12.17545       -3.23460        4.39676
C         12.61010       -1.85354        4.89552
C         12.16554       -0.69162        4.00167
C         12.66535        0.66600        4.50374
C         12.30897        1.84966        3.59905
C         12.89979        3.17022        4.10154
C         12.62768        4.37470        3.19516
C         13.33718        5.64354        3.68000
C         13.09229        6.86982        2.79522
C         13.84490        8.13272        3.24452
C         15.36916        8.10342        3.08242
N         15.70216        8.02500        1.64456
C         16.87874        7.96455        1.03769
N         18.06341        8.34027        1.63967
C         18.11542        9.58372        2.35270
O         17.19042       10.36445        2.39157
O         19.32413        9.72630        2.90168
C         19.54799       10.97152        3.66294
C         19.13759       10.80578        5.11516
C         19.45548       12.06454        5.93448
C         19.03810       11.92534        7.39970
C         19.31295        7.56844        1.38737
C         19.73041        6.69309        2.56135
O         18.71254        5.72056        2.76121
C         19.05395        4.76537        3.75039
C         17.83100        3.89594        4.01416
F         17.38798        3.28436        2.89107
F         18.13644        2.94504        4.92314
F         16.79706        4.63076        4.50952
N         16.93044        7.50408       -0.22856
H         12.48753       -7.88693        5.30004
H         12.42014       -6.80559        6.70544
H         13.89419       -6.89077        5.72260
H         11.16929       -5.82834        4.72860
H         12.63596       -5.90976        3.75696
H         13.77627       -4.32836        5.35427
H         12.30006       -4.23609        6.31172
H         11.07401       -3.27359        4.33207
H         12.54536       -3.38345        3.36691
H         13.71085       -1.83455        4.98577
H         12.22216       -1.69630        5.91731
H         11.06415       -0.67891        3.92952
H         12.53598       -0.85958        2.97494
H         13.76341        0.62199        4.61582
H         12.26746        0.84941        5.51718
H         11.21204        1.93877        3.51559
H         12.67768        1.65090        2.57715
H         13.99156        3.04971        4.21621
H         12.51278        3.38287        5.11321
H         11.54137        4.55684        3.12960
H         12.96038        4.14057        2.16802
H         14.41741        5.43316        3.74987
H         13.00773        5.87822        4.70695
H         12.01610        7.10241        2.78087
H         13.33850        6.61612        1.74524
H         13.64460        8.31344        4.31149
H         13.46017        9.01975        2.71440
H         15.82463        7.23910        3.58798
H         15.79872        9.02690        3.48830
H         14.89155        7.94245        1.03217
H         18.99383       11.77869        3.16726
H         20.62634       11.14256        3.55734
H         19.66315        9.93863        5.54675
H         18.05735       10.59542        5.16734
H         18.94566       12.93141        5.48395
H         20.53562       12.27586        5.87469
H         17.95631       11.75121        7.49113
H         19.27832       12.83387        7.96646
H         19.55521       11.08403        7.88338
H         20.11768        8.27027        1.14228
H         19.13724        6.91590        0.52521
H         19.88842        7.29147        3.47468
H         20.69128        6.21325        2.29311
H         19.33755        5.24282        4.70510
H         19.87833        4.10886        3.41942
H         16.15473        6.99147       -0.63212
H         17.68606        7.77367       -0.84667
