36

C          3.11614       -4.68479       -1.52644
O          3.57345       -3.68024       -0.59817
C          3.72420       -2.39667       -1.04181
C          3.42221       -1.92593       -2.32270
C          3.64293       -0.57999       -2.62767
C          4.16779        0.30010       -1.67954
C          4.47644       -0.16322       -0.39840
C          4.24643       -1.49939       -0.08901
N          4.54033       -2.09112        1.23073
C          5.87156       -1.69455        1.83119
C          6.15978       -2.54522        3.07722
C          6.55436       -3.99259        2.76809
O          5.06603       -2.43605        4.00227
C          3.82151       -2.85162        3.45674
C          3.39103       -1.97616        2.27126
C          3.07067       -0.53832        2.64395
H          3.09654       -5.61922       -0.95789
H          3.81124       -4.77795       -2.37275
H          2.10412       -4.44848       -1.88432
H          3.02209       -2.59761       -3.07993
H          3.40408       -0.22042       -3.62839
H          4.34100        1.34480       -1.93217
H          4.89505        0.51801        0.34154
H          4.58428       -3.10685        1.02616
H          5.81722       -0.63286        2.09255
H          6.63114       -1.83262        1.05156
H          6.99852       -2.06082        3.59870
H          5.81796       -4.54243        2.16257
H          6.68492       -4.54254        3.70788
H          7.50837       -4.01407        2.22485
H          3.08337       -2.75566        4.26329
H          3.84646       -3.91603        3.15621
H          2.53260       -2.44340        1.76700
H          3.88278       -0.05616        3.20184
H          2.19147       -0.55266        3.30140
H          2.81165        0.06969        1.76966
