67

O          3.28549        2.26456       -0.11686
C          2.24353        1.27455        0.05597
C          2.84181       -0.07455        0.41130
N          3.37679       -0.14179        1.76979
C          3.39731       -1.47390        2.37212
C          4.47501       -2.41190        1.79276
C          5.93885       -1.94704        2.03203
C          6.28298       -0.67071        1.32157
C          6.80176       -0.64531        0.04670
C          6.99395        0.58740       -0.63716
C          7.53644        0.53348       -1.92314
N          7.65411        1.65244       -2.64758
C          7.19968        2.85678       -2.19760
C          6.67227        3.02103       -0.93102
C          6.63525        1.87215       -0.05006
C          6.25443        1.80254        1.33417
C          6.06467        0.57734        1.95060
N          6.02981        2.88588        2.26319
O          4.64537        3.35383        2.11380
O          6.91579        3.92210        1.89085
C          6.13326        4.41287       -0.66715
C          7.24492        5.46895       -0.44807
C          6.67456        6.74851        0.17143
S          7.97105        7.92910        0.62317
C          8.11163        7.73986        2.40736
S          7.10578        6.76700        3.33771
N          9.08382        8.51108        2.93815
C          9.94037        9.40832        2.14218
C         11.24719        8.74910        1.69439
C          9.34727        8.51053        4.38980
C          8.55167        9.58395        5.13379
O          4.28978       -3.73063        2.29104
H          2.86833        3.06997       -0.46270
H          1.68007        1.17003       -0.88442
H          1.53946        1.59964        0.84328
H          3.63868       -0.30979       -0.31708
H          2.04156       -0.82834        0.25992
H          2.90665        0.52297        2.38283
H          2.42836       -2.00230        2.26133
H          3.58036       -1.34994        3.45243
H          4.32433       -2.51127        0.70493
H          6.58720       -2.76462        1.68782
H          6.10057       -1.82833        3.11584
H          7.07031       -1.57234       -0.46415
H          7.86946       -0.39600       -2.38147
H          8.05637        1.59961       -3.58151
H          7.26199        3.67652       -2.90993
H          5.79071        0.61220        3.00450
H          4.26904        2.93307        1.30010
H          6.93270        4.56068        2.64644
H          5.46898        4.41398        0.19964
H          5.52761        4.70105       -1.54285
H          7.74634        5.70039       -1.40130
H          8.00444        5.05464        0.22455
H          6.12434        6.53321        1.10366
H          6.00852        7.28387       -0.52064
H         10.14641       10.28703        2.76983
H          9.36736        9.77583        1.27981
H         11.83905        8.40906        2.55489
H         11.85518        9.47058        1.13231
H         11.05125        7.88530        1.04645
H         10.42865        8.66795        4.51487
H          9.09772        7.51250        4.76948
H          8.77903       10.59222        4.76079
H          8.80609        9.55669        6.20183
H          7.47367        9.40706        5.03307
H          4.36735       -3.71963        3.26014
