64

C          2.19368        2.76496        3.68700
C          2.85855        1.68712        4.54711
C          3.87684        0.83655        3.77909
C          4.57713       -0.21121        4.65048
C          5.58279       -1.07665        3.88440
C          6.35903       -2.04374        4.78644
C          7.27691       -2.98996        3.99763
C          8.16684       -3.79389        4.93164
O          8.96224       -4.80790        4.20563
C         10.07421       -4.39667        3.61641
O         10.51526       -3.25192        3.64174
C         10.75062       -5.52936        2.83438
N         12.20842       -5.62363        3.00384
C         13.02038       -4.79601        2.29627
N         12.51380       -3.64333        1.83335
N         14.29288       -5.13413        2.04650
C         15.35030       -4.21974        1.61228
C         16.68801       -4.48461        2.32472
C         17.31437       -5.87061        2.16184
C         17.55807       -6.37954        0.70233
Br        18.59484       -5.12193       -0.37430
F         18.16372       -7.57562        0.70976
F         16.33664       -6.55197        0.10691
Br        18.98501       -5.93606        3.16556
F         16.45135       -6.82714        2.72447
C         12.73174       -6.69961        3.88005
C         13.08644       -6.28834        5.32498
C         14.29787       -5.35007        5.41077
C         11.88686       -5.72213        6.09620
H          1.46235        3.34573        4.26510
H          1.66523        2.32470        2.82822
H          2.93711        3.47157        3.28817
H          2.08575        1.02676        4.97554
H          3.35925        2.16116        5.40857
H          4.63513        1.49767        3.32316
H          3.36957        0.33417        2.93651
H          3.81964       -0.86390        5.11888
H          5.09315        0.29730        5.48415
H          6.30028       -0.42556        3.35465
H          5.05425       -1.64661        3.10030
H          5.65153       -2.63805        5.38921
H          6.95885       -1.46012        5.50596
H          7.90288       -2.40644        3.30518
H          6.66973       -3.68035        3.39091
H          7.58407       -4.39863        5.63699
H          8.86685       -3.15314        5.48434
H         10.51994       -5.36291        1.76913
H         10.31120       -6.48864        3.12488
H         11.74140       -3.21683        2.37801
H         13.01635       -3.10130        1.14277
H         14.57375       -6.09263        2.22690
H         15.04893       -3.19661        1.87732
H         15.47033       -4.26133        0.51960
H         16.57034       -4.32697        3.40528
H         17.41190       -3.74140        1.96755
H         13.60152       -7.17841        3.40631
H         11.95233       -7.47253        3.90138
H         13.37207       -7.24436        5.79861
H         14.09464       -4.37804        4.93514
H         15.18890       -5.79158        4.94435
H         14.54317       -5.14428        6.46102
H         11.62978       -4.70920        5.75342
H         12.12664       -5.64316        7.16450
H         10.99497       -6.35831        6.00481
