44

O          4.44565        1.63362        1.69089
C          3.27078        0.80763        1.76759
C          3.17379        0.22718        3.16029
O          4.21370       -0.74951        3.35227
C          4.84714       -0.78964        4.59089
O          6.23711       -0.43234        4.49359
C          6.48125        0.90848        4.12104
C          7.93145        1.06572        3.88185
N          8.72507        0.04448        3.89635
C         10.13889        0.36236        3.63103
C         10.17513        1.91529        3.69322
C          8.67769        2.31948        3.57284
N         10.63687        2.42156        5.01078
O          9.86147        1.69396        6.01775
O         11.98568        1.94721        5.13269
Si        11.29609        2.70231        2.28351
C         11.61900        4.49261        2.73771
C         12.87315        1.71121        2.05219
C         10.27647        2.58202        0.69847
H          4.53145        1.95381        0.78030
H          3.31877       -0.01199        1.03119
H          2.36084        1.40134        1.57384
H          2.19278       -0.26166        3.27890
H          3.25424        1.02902        3.91499
H          4.87942       -1.82419        4.95828
H          4.34507       -0.12959        5.32367
H          6.17191        1.62975        4.90582
H          5.94126        1.19564        3.18989
H          8.35442       -0.88887        4.09866
H         10.40695       -0.04310        2.64424
H         10.78361       -0.10261        4.38664
H          8.39951        2.65108        2.55869
H          8.41582        3.13742        4.25719
H          9.84627        2.31838        6.76359
H         12.40456        2.61251        5.70699
H         12.25768        4.57529        3.62622
H         10.68574        5.03649        2.93797
H         12.13080        5.00061        1.90799
H         13.49333        1.70624        2.95569
H         13.45627        2.16356        1.23676
H         12.67573        0.66882        1.76434
H          9.42356        3.27464        0.67760
H          9.90257        1.56567        0.50626
H         10.92286        2.84792       -0.15047
