49

C          1.85040        1.44181       -0.40668
C          3.34033        1.09515       -0.46250
C          3.71284        0.28400       -1.71118
C          5.19681       -0.02662       -1.77967
O          5.45037       -0.79285       -2.97796
C          6.80876       -1.16086       -3.11446
C          6.88617       -2.18619       -4.22216
N          7.54520       -1.77606       -5.30400
N          7.64701       -2.61410       -6.33947
C          7.07884       -3.83487       -6.36833
C          6.38150       -4.28761       -5.25555
C          6.26749       -3.46943       -4.13295
C          5.58871       -3.93467       -2.88476
C          6.61370       -4.52466       -1.85932
C          6.00650       -4.67619       -0.51363
C          5.73183       -5.82252        0.12158
F          5.98541       -7.01826       -0.40118
F          5.20013       -5.90551        1.32494
F          5.69327       -3.50752        0.11032
C          8.27724       -2.04699       -7.52779
C          7.19459       -1.42266       -8.50964
N          6.31429       -0.44069       -7.90383
N          8.00028       -0.88024       -9.59293
N          6.34536       -2.51647       -8.95800
H          1.60937        2.00934        0.50164
H          1.22767        0.53511       -0.40703
H          1.54833        2.05235       -1.27016
H          3.62120        0.52851        0.44071
H          3.93476        2.02352       -0.43735
H          3.42196        0.83766       -2.61841
H          3.14841       -0.66275       -1.72410
H          5.52339       -0.61503       -0.90099
H          5.79690        0.90211       -1.80743
H          7.20197       -1.59335       -2.17216
H          7.45089       -0.30214       -3.37936
H          7.20707       -4.40918       -7.28118
H          5.93396       -5.28114       -5.27895
H          4.84767       -4.70775       -3.12665
H          5.06073       -3.09006       -2.42437
H          7.48771       -3.85862       -1.77488
H          6.98482       -5.49641       -2.20975
H          8.82298       -2.83805       -8.05426
H          8.97379       -1.27671       -7.18137
H          6.81618        0.37133       -7.54861
H          5.72502       -0.81662       -7.15971
H          8.65270       -0.16134       -9.27205
H          7.38889       -0.44767      -10.28838
H          5.46176       -2.14240       -9.30681
H          6.80220       -3.01770       -9.72162
