58

C          0.86304       -0.45786        0.52796
C          2.37243       -0.34122        0.30131
C          3.15690       -0.07976        1.59227
C          4.66357        0.09265        1.36715
C          5.43546        0.35979        2.66744
C          6.90698        0.63001        2.39725
O          7.60791        0.99319        3.64307
C          8.27264        0.03868        4.28489
O          8.38022       -1.12485        3.90143
C          8.89854        0.55917        5.57480
C         10.22666       -0.15517        5.89813
C         10.90831        0.29931        7.18718
C         10.33843       -0.39237        8.43196
C         11.04936        0.08038        9.68279
C         12.43075       -0.06215        9.86043
C         13.01083        0.45084       11.02232
N         12.32161        1.08507       11.98292
C         11.00168        1.22151       11.80361
C         10.32297        0.73788       10.68062
N         10.41225       -1.87943        8.24613
C         10.07078       -2.37142        7.03583
N          9.73464       -3.67811        6.89649
N         10.02365       -1.60643        5.94193
C         10.36167       -2.75679        9.42638
C         11.53815       -3.70729        9.61277
C         12.55247       -4.05043        8.59432
O         12.84911       -3.14407        9.66841
H          0.33004       -0.64892       -0.41297
H          0.45186        0.46686        0.95946
H          0.62272       -1.27991        1.21841
H          2.57498        0.47189       -0.41605
H          2.74878       -1.26318       -0.17299
H          2.98295       -0.90899        2.30034
H          2.75878        0.82574        2.08268
H          4.83043        0.92689        0.66396
H          5.06920       -0.80751        0.87445
H          5.33940       -0.50465        3.34459
H          5.00152        1.22878        3.18752
H          7.04791        1.51007        1.75725
H          7.41578       -0.23576        1.95485
H          8.16453        0.40718        6.38409
H          9.06410        1.64077        5.48740
H         10.91661        0.03414        5.05994
H         10.80308        1.38511        7.30795
H         11.98487        0.08683        7.12756
H          9.26961       -0.13466        8.54193
H         13.05016       -0.58823        9.13474
H         14.08572        0.34688       11.19062
H         10.45649        1.74085       12.59634
H          9.24350        0.87742       10.58999
H          9.96765       -4.33849        7.62646
H          9.67590       -4.06121        5.96006
H          9.49883       -1.93507        5.11450
H          9.42215       -3.33617        9.43007
H         10.31674       -2.10277       10.30642
H         11.33755       -4.44983       10.39626
H         12.52643       -3.58600        7.60382
H         13.05394       -5.02125        8.64753
