46

C          5.11195       -2.91069        0.41388
C          4.45442       -1.57206        0.15269
O          4.84249       -0.65228        1.19717
C          4.26164        0.62709        1.05894
C          4.66036        1.42882        2.28817
N          6.15874        1.46076        2.47623
C          6.85097        2.40186        1.52325
C          8.29981        1.93500        1.30500
N          8.30791        0.47619        1.14875
C          6.55812        1.70796        3.91575
C          6.29743        0.50711        4.82611
C          6.99143        0.64900        6.19194
C          6.44226        1.78981        7.06928
N          7.11190        1.87702        8.35129
C          8.32316        2.50297        8.57576
C          8.69016        2.27124        9.88777
C          7.67184        1.47093       10.47868
C          6.71465        1.23747        9.50974
H          4.82537       -3.62304       -0.37075
H          4.79527       -3.32259        1.38082
H          6.20663       -2.82305        0.41087
H          3.35336       -1.66291        0.15071
H          4.76055       -1.15792       -0.82595
H          3.15622        0.58031        1.03191
H          4.58344        1.11499        0.11683
H          4.23968        0.95165        3.18006
H          4.30183        2.46520        2.23361
H          6.55431        0.52579        2.19334
H          6.79238        3.42192        1.92330
H          6.29238        2.36475        0.57905
H          8.92056        2.19337        2.17363
H          8.71139        2.49499        0.44945
H          9.20528        0.07599        1.41754
H          8.13270        0.19361        0.18396
H          6.02471        2.61357        4.23616
H          7.63245        1.93482        3.90481
H          6.67750       -0.40157        4.33221
H          5.21726        0.35633        4.97769
H          8.07418        0.79395        6.04884
H          6.87720       -0.29692        6.73982
H          5.36676        1.64000        7.25190
H          6.55031        2.76417        6.56601
H          8.80834        3.07529        7.79085
H          9.58318        2.65097       10.37363
H          7.63407        1.11959       11.50471
H          5.77798        0.69004        9.54867
