64

C         12.23233        2.07584       -7.57213
C         11.61781        0.71175       -7.24976
C         11.35701        0.49989       -5.75398
C         10.73014       -0.86046       -5.43248
C         10.42284       -1.06351       -3.94522
C          9.75535       -2.41019       -3.64413
C          9.40130       -2.59175       -2.16212
C          8.57250       -3.84740       -1.84305
C          9.29083       -5.15819       -2.14571
N          8.42270       -6.34642       -1.96951
C          9.16401       -7.41654       -1.62556
N          8.77263       -8.68598       -1.60455
C          7.40143       -9.25950       -1.75401
C          6.67014       -8.88659       -3.06945
C          7.27773       -9.21085       -4.45318
C          6.19621       -8.99262       -5.52304
C          8.54543       -8.41990       -4.81066
C          7.64152      -10.78624       -1.72783
O          8.49701      -11.07390       -0.61602
C          6.54904       -8.84010       -0.53932
N         10.42907       -7.02175       -1.32966
C         10.48991       -5.53957       -1.22330
C         10.38313       -5.09760        0.21168
C         11.31267       -4.35678        0.81909
H         12.40073        2.19585       -8.65084
H         13.20164        2.20740       -7.06862
H         11.57711        2.89692       -7.24526
H         12.28066       -0.08899       -7.61961
H         10.66884        0.59572       -7.80047
H         10.69559        1.30254       -5.38323
H         12.30463        0.60955       -5.19770
H         11.40229       -1.66435       -5.78166
H          9.79710       -0.97477       -6.01209
H          9.76603       -0.24933       -3.59336
H         11.35415       -0.97476       -3.35903
H         10.42423       -3.21967       -3.98672
H          8.83626       -2.50014       -4.25040
H          8.81784       -1.72053       -1.82619
H         10.31908       -2.58205       -1.55141
H          7.64624       -3.82281       -2.44218
H          8.26222       -3.83800       -0.78758
H          9.65613       -5.15503       -3.18717
H          7.57333       -6.45600       -2.51267
H          9.40381       -9.35654       -1.15745
H          6.37629       -7.82121       -3.04315
H          5.70409       -9.41301       -3.00074
H          7.53717      -10.28319       -4.47174
H          5.89199       -7.93513       -5.57182
H          5.29643       -9.58983       -5.31958
H          6.56738       -9.27426       -6.51725
H          8.35880       -7.33366       -4.79379
H          8.86824       -8.66766       -5.83052
H          9.38787       -8.63750       -4.14278
H          8.11241      -11.11460       -2.66827
H          6.66504      -11.28739       -1.62670
H          8.72708      -12.01543       -0.62567
H          6.42646       -7.74982       -0.49259
H          7.01477       -9.17830        0.39422
H          5.54824       -9.28613       -0.60586
H         11.01355       -7.58967       -0.72224
H         11.42991       -5.17944       -1.66146
H          9.49585       -5.42840        0.76111
H         12.20732       -4.01565        0.29290
H         11.21280       -4.05730        1.86212
