77

C          0.86151        0.18340        0.20989
C          2.39217        0.20143        0.22130
C          3.01222       -1.19341        0.35676
C          4.54430       -1.19703        0.34657
C          5.14573       -2.60269        0.43794
C          6.67710       -2.63481        0.39840
C          7.24379       -4.05752        0.43373
C          8.77330       -4.13011        0.38764
C          9.29578       -5.56996        0.35771
C         10.82251       -5.68497        0.30728
C         11.29962       -7.13859        0.22782
C         12.82331       -7.28939        0.17937
C         13.25350       -8.75091       -0.01497
C         14.77079       -8.89394        0.00799
N         15.28472      -10.22543       -0.48886
C         15.24394      -10.41438       -1.99591
O         15.12789      -11.79833       -2.21775
C         15.21831      -12.51888       -0.94893
C         14.67131      -11.48986        0.04875
C         14.42398      -13.83568       -1.04233
C         14.29884      -14.46890        0.36379
O         15.47214      -14.31676        1.17236
C         13.03783      -13.65392       -1.69378
C         12.32185      -14.97699       -1.98906
C         16.74810      -12.68304       -0.71299
O         17.41985      -11.77078       -0.22917
O         17.24967      -13.80440       -1.19908
C         18.71725      -13.95633       -1.13715
C         19.05479      -15.31928       -1.69373
H          0.44608        1.19521        0.10622
H          0.45988       -0.24632        1.13982
H          0.47580       -0.42092       -0.62484
H          2.74856        0.84017        1.04718
H          2.76214        0.67293       -0.70503
H          2.64307       -1.83441       -0.46372
H          2.65162       -1.66355        1.28899
H          4.91956       -0.57999        1.18189
H          4.90347       -0.70664       -0.57551
H          4.75139       -3.21750       -0.39061
H          4.79581       -3.09022        1.36503
H          7.08139       -2.05353        1.24557
H          7.03027       -2.12387       -0.51468
H          6.83054       -4.62925       -0.41616
H          6.88373       -4.57066        1.34285
H          9.19574       -3.60091        1.25954
H          9.14031       -3.58926       -0.50232
H          8.86592       -6.08962       -0.51694
H          8.92035       -6.11218        1.24333
H         11.26080       -5.19882        1.19594
H         11.20511       -5.12689       -0.56510
H         10.86040       -7.61284       -0.66753
H         10.90661       -7.70127        1.09224
H         13.26685       -6.88969        1.10693
H         13.23100       -6.67915       -0.64467
H         12.84415       -9.11299       -0.97312
H         12.80463       -9.37166        0.77609
H         15.17037       -8.77196        1.02404
H         15.25462       -8.13733       -0.62768
H         16.29329      -10.36058       -0.22874
H         16.17702      -10.00371       -2.41087
H         14.36952       -9.89115       -2.40793
H         15.00630      -11.64790        1.07906
H         13.58024      -11.42299       -0.00683
H         15.01846      -14.50444       -1.68401
H         14.01949      -15.52774        0.27183
H         13.48642      -13.97168        0.91916
H         16.06500      -15.06557        1.00927
H         13.16249      -13.09416       -2.63000
H         12.39578      -13.03575       -1.04155
H         12.93996      -15.62979       -2.62218
H         11.38320      -14.79053       -2.52580
H         12.06795      -15.53470       -1.07756
H         19.01920      -13.83438       -0.08838
H         19.15851      -13.13726       -1.72092
H         18.59263      -16.12150       -1.10381
H         20.14316      -15.46114       -1.65882
H         18.73271      -15.41883       -2.73792
