73

C          8.06128      -12.28797        2.33594
O          7.80967      -11.11069        1.57584
C          8.22155       -9.93236        2.23576
C          7.80349       -8.76887        1.34757
O          8.30569       -7.56169        1.94007
C          7.86998       -6.39527        1.27985
C          8.51075       -5.21339        1.98958
S         10.32453       -5.40084        2.00201
N         10.74161       -5.37334        0.39977
C         10.52744       -4.17502       -0.42121
C         11.94313       -6.16550        0.07428
C         10.85051       -3.82856        2.78989
C         10.52486       -3.79624        4.29064
C         11.03777       -4.98810        5.11556
C         12.55794       -5.19951        5.05088
C         13.10185       -6.18373        6.09750
C         12.65648       -7.64131        5.92192
C         13.27741       -8.57869        6.96394
C         12.85918      -10.04496        6.81329
C         13.48391      -10.96402        7.86878
C         13.05846      -12.43066        7.73960
C         13.69620      -13.33970        8.79397
C         13.25837      -14.80501        8.65615
N         13.85043      -15.67885        9.65695
C         13.30763      -15.95874       10.89312
C         14.21567      -16.72529       11.60100
C         15.35360      -16.90943       10.76728
C         15.10302      -16.24980        9.57750
H          7.70287      -13.13288        1.73728
H          7.51917      -12.26896        3.29820
H          9.14039      -12.41645        2.53559
H          9.32007       -9.91617        2.38877
H          7.74408       -9.83930        3.23125
H          6.70302       -8.72654        1.26870
H          8.21823       -8.89916        0.33170
H          6.77024       -6.27428        1.33637
H          8.14890       -6.40597        0.20822
H          8.24641       -5.20948        3.05724
H          8.23572       -4.24754        1.54581
H          9.55306       -3.72228       -0.20389
H         10.52244       -4.48784       -1.47326
H         11.31935       -3.42103       -0.28252
H         11.98499       -7.04934        0.72121
H         12.87284       -5.58420        0.18515
H         11.85544       -6.50061       -0.96743
H         10.38908       -2.99203        2.24774
H         11.93579       -3.81474        2.60977
H          9.44009       -3.67413        4.43082
H         10.97751       -2.86476        4.66852
H         10.51081       -5.91081        4.81729
H         10.74373       -4.81090        6.16186
H         13.05554       -4.22457        5.19131
H         12.85593       -5.55278        4.04647
H         12.81375       -5.83091        7.10280
H         14.20259       -6.14368        6.07098
H         12.93047       -7.98666        4.90819
H         11.55692       -7.71707        5.98337
H         13.00555       -8.22558        7.97383
H         14.37735       -8.50535        6.90699
H         13.13624      -10.40403        5.80608
H         11.75851      -10.11950        6.86984
H         13.21856      -10.59610        8.87502
H         14.58383      -10.89719        7.80493
H         13.31768      -12.79844        6.73081
H         11.95827      -12.49790        7.81257
H         13.43737      -12.98691        9.80538
H         14.79464      -13.28907        8.72095
H         13.52670      -15.19162        7.66047
H         12.16393      -14.88527        8.74384
H         12.31884      -15.59794       11.15837
H         14.06906      -17.12054       12.60106
H         16.25065      -17.47278       11.00347
H         15.70443      -16.14453        8.68006
