52

C          6.97058       -2.53366        6.99623
C          6.36956       -1.46010        6.08595
C          7.24486       -1.14479        4.86646
C          6.62871       -0.08929        3.93875
C          7.50693        0.19118        2.72518
O          6.87033        1.05965        1.75128
C          6.89827        2.41537        2.03725
N          8.24331        3.04186        1.78179
C          8.89631        2.80054        0.63085
N          8.26065        2.47289       -0.51667
C          6.93925        2.84893       -0.92055
C          6.56807        4.19903       -0.91472
C          5.28484        4.55412       -1.33237
C          4.39246        3.57315       -1.77646
C          4.78121        2.23087       -1.79864
C          6.05415        1.86047       -1.36181
N         10.24785        2.81417        0.58402
C          8.93034        3.69683        2.92202
C          9.61866        4.99924        2.57688
C          8.92469        6.02228        1.91391
C          9.56465        7.22509        1.61439
C         10.90147        7.42172        1.97868
C         11.59485        6.41271        2.64935
C         10.95463        5.20486        2.94486
H          6.31848       -2.73738        7.85570
H          7.95065       -2.22535        7.38937
H          7.11303       -3.48162        6.45690
H          6.20364       -0.53460        6.66288
H          5.37373       -1.78374        5.73974
H          7.41970       -2.07308        4.29528
H          8.23926       -0.80774        5.20899
H          6.45013        0.83826        4.50931
H          5.64522       -0.43203        3.58015
H          7.70367       -0.73638        2.16996
H          8.48665        0.60959        3.02043
H          6.68212        2.64400        3.09237
H          6.14223        2.89294        1.40192
H          8.79952        1.91217       -1.17181
H          7.28514        4.95965       -0.60335
H          4.98913        5.60336       -1.33194
H          3.39567        3.85676       -2.11394
H          4.08876        1.46479       -2.14741
H          6.35620        0.81316       -1.34158
H         10.77789        3.04466        1.41615
H         10.69916        3.04650       -0.29374
H          9.64121        2.99647        3.39556
H          8.14408        3.87840        3.66775
H          7.87632        5.88134        1.64236
H          9.01673        8.01844        1.10499
H         11.39741        8.36414        1.74601
H         12.63286        6.56363        2.94639
H         11.49701        4.42509        3.48746
