53

F          7.12559       -0.67790       -2.54252
C          7.21220       -0.00849       -1.28354
C          6.39128       -0.75989       -0.24967
C          4.92812       -0.94231       -0.64865
N          4.71190       -1.92657       -1.78851
C          3.31920       -1.76592       -2.42755
O          2.67543       -2.98021       -2.24699
C          3.68927       -3.96834       -2.44240
C          4.86613       -3.50321       -1.55385
C          4.65667       -3.80420       -0.05980
C          4.09178       -5.18125        0.32808
C          4.21796       -5.47316        1.83429
C          3.37031       -4.64108        2.81201
S          3.97743       -2.95852        3.13475
O          5.42098       -2.98758        3.27567
O          3.35122       -2.02553        2.21881
O          3.31762       -2.63756        4.57394
C          6.26168       -3.87401       -2.09450
C          6.76511       -5.32717       -1.93637
C          5.96277       -6.35247       -2.76321
C          6.38581       -7.80972       -2.55355
C          8.25964       -5.34540       -2.29810
H          6.83237        1.01000       -1.45339
H          8.27666        0.03544       -1.01979
H          6.39687       -0.16611        0.67829
H          6.86381       -1.71647        0.01084
H          4.52981        0.01196       -1.02393
H          4.30834       -1.24947        0.20083
H          5.42859       -1.68239       -2.49098
H          3.48761       -1.51913       -3.49169
H          2.75787       -0.97221       -1.92250
H          3.98800       -4.01590       -3.50573
H          3.27461       -4.93430       -2.14437
H          3.96244       -3.06696        0.35328
H          5.61507       -3.65292        0.46070
H          4.61327       -5.99182       -0.19997
H          3.03197       -5.24652        0.03501
H          5.27344       -5.41590        2.14204
H          3.91160       -6.51685        1.99890
H          3.37072       -5.12252        3.79885
H          2.32596       -4.52029        2.49100
H          3.99578       -2.78601        5.26216
H          6.99546       -3.23001       -1.58982
H          6.30703       -3.60329       -3.16575
H          6.68516       -5.60424       -0.86999
H          6.04621       -6.09077       -3.83228
H          4.89266       -6.27658       -2.51748
H          7.40590       -8.00342       -2.90864
H          5.71788       -8.48883       -3.09859
H          6.34520       -8.08862       -1.48956
H          8.41415       -5.09418       -3.35855
H          8.70330       -6.33223       -2.12261
H          8.82484       -4.62095       -1.69541
