66

C          3.01439       -4.71263        6.40636
C          1.72918       -4.17104        7.03297
N          1.25029       -2.93769        6.38087
C          0.38062       -3.00183        5.34593
S         -0.19770       -4.42736        4.68868
S         -0.12393       -1.38498        4.74477
C         -0.92530       -1.75327        3.14834
C         -2.41032       -2.11801        3.22072
C         -3.28283       -1.04403        3.87346
C         -4.76044       -1.43736        4.08603
C         -5.58409       -0.29880        4.72216
C         -5.23045       -0.06406        6.20225
C         -6.11889        1.02269        6.83381
C         -5.63190        1.52413        8.20958
C         -6.53688        2.54870        8.79823
C         -6.26249        3.84181        9.00177
F         -5.08972        4.39480        8.69230
F         -7.09882        4.71717        9.53019
F         -7.77217        2.09694        9.14993
C         -5.33093       -1.37470        6.98879
N         -4.50620       -2.47137        6.35461
C         -4.93130       -2.70872        4.92150
C         -4.47497       -3.75376        7.17215
C         -3.07283       -4.36808        7.20250
C         -2.07515       -3.44236        7.91313
C         -3.13989       -5.74644        7.87244
C          1.81438       -1.68301        6.90792
C          1.03189       -1.10762        8.09160
H          3.33886       -5.61090        6.94851
H          3.83194       -3.98031        6.45285
H          2.84676       -4.98622        5.35727
H          1.88115       -3.93267        8.09629
H          0.92747       -4.91663        6.95252
H         -0.35092       -2.56699        2.68651
H         -0.76003       -0.83173        2.56999
H         -2.47285       -3.07677        3.75674
H         -2.75980       -2.31369        2.19320
H         -3.26794       -0.12708        3.26266
H         -2.81453       -0.75123        4.83062
H         -5.19567       -1.67248        3.10080
H         -6.65964       -0.53077        4.64117
H         -5.42468        0.63264        4.16007
H         -4.18348        0.28552        6.26522
H         -7.15438        0.65438        6.91604
H         -6.15296        1.87969        6.14442
H         -4.62419        1.95545        8.11989
H         -5.55979        0.69185        8.93158
H         -6.36712       -1.74521        7.02530
H         -4.96538       -1.27085        8.01827
H         -3.53084       -2.13160        6.32345
H         -5.98345       -3.02333        4.96611
H         -4.33177       -3.54625        4.54587
H         -5.21807       -4.43068        6.73060
H         -4.80882       -3.49559        8.18745
H         -2.72032       -4.51321        6.16494
H         -2.39081       -3.22633        8.94546
H         -1.91891       -2.48320        7.39096
H         -1.08794       -3.91595        7.95312
H         -3.45003       -5.66862        8.92556
H         -2.15174       -6.22280        7.84826
H         -3.84392       -6.41509        7.35797
H          1.87331       -0.95473        6.08781
H          2.84922       -1.90153        7.20763
H          0.01653       -0.81486        7.79431
H          1.54323       -0.21427        8.47388
H          0.95773       -1.82965        8.91633
