57

F          4.18041       -0.49800        1.92689
C          4.81028       -1.67590        2.19504
C          3.91022       -2.52520        3.15890
C          2.60698       -3.07153        2.57836
C          1.64756       -1.99713        2.04586
C          0.27463       -2.57614        1.66121
N         -0.65465       -1.48028        1.32135
C         -0.79278       -0.97980        0.08302
N         -1.56139        0.10960       -0.11885
C         -1.74799        0.80567       -1.39778
C         -0.63947        1.81446       -1.72802
C         -0.86036        2.48045       -3.08928
C          0.21243        3.53750       -3.40803
N          0.04923        4.11738       -4.72608
C         -0.79491        5.16430       -5.03947
C         -0.78385        5.32915       -6.41132
C          0.08805        4.34223       -6.95170
C          0.58287        3.60522       -5.89270
N         -0.20297       -1.60389       -0.94667
C          0.63438       -2.80429       -0.80693
C          0.29092       -3.56848        0.47632
C         -1.02244       -4.36834        0.37038
C         -1.17441       -5.50165        1.37395
C         -0.09086       -6.41528        1.76702
O         -0.52662       -5.36541        2.65682
Br         4.97174       -4.02753        3.84612
F          3.62554       -1.68314        4.21634
Br         5.14400       -2.58229        0.47460
F          5.98517       -1.37553        2.76272
H          2.12565       -3.63336        3.39253
H          2.87199       -3.79862        1.80084
H          2.08387       -1.47338        1.18323
H          1.49187       -1.23339        2.82212
H         -0.15779       -3.09316        2.52791
H         -1.14667       -1.02035        2.07919
H         -1.88282        0.59407        0.71251
H         -2.72116        1.31208       -1.33767
H         -1.86412        0.05529       -2.19654
H          0.34275        1.31144       -1.70848
H         -0.60686        2.57601       -0.93145
H         -1.85141        2.96047       -3.12244
H         -0.85534        1.72348       -3.89040
H          1.21696        3.09014       -3.35198
H          0.18171        4.34725       -2.66276
H         -1.31521        5.71187       -4.25965
H         -1.32778        6.08902       -6.96274
H          0.34305        4.20121       -7.99694
H          1.28525        2.77790       -5.86588
H         -0.26215       -1.16592       -1.85803
H          1.69548       -2.50797       -0.80914
H          0.46402       -3.43390       -1.68998
H          1.12020       -4.26959        0.64014
H         -1.10974       -4.80764       -0.63664
H         -1.88592       -3.69164        0.47808
H         -2.19537       -5.89460        1.44273
H          0.91840       -6.29162        1.36085
H         -0.33696       -7.42932        2.09274
