87

C          0.75157        0.00208       -0.65372
C          2.26113       -0.09796       -0.42072
C          2.76462        0.79580        0.71862
C          4.26930        0.66856        0.97617
C          4.79135        1.57762        2.09406
C          6.28887        1.40086        2.36619
C          6.84469        2.32339        3.45652
C          8.34099        2.11343        3.71224
C          8.94287        3.04795        4.76729
C         10.44979        2.84312        4.94930
C         11.10604        3.80592        5.94509
C         12.63534        3.73583        5.89294
C         13.33002        4.74666        6.81547
C         14.81073        4.88541        6.47342
O         15.56424        3.64478        6.65794
C         15.80439        3.52723        8.00838
N         16.16285        4.97010        8.46741
C         15.68166        5.86122        7.30497
C         15.10599        7.17578        7.83013
C         14.91820        8.21674        6.71287
O         14.02460        7.59874        5.79139
C         13.95935        8.15103        4.46074
C         13.31216        7.10214        3.59614
C         11.92048        6.92959        3.61614
C         11.32314        5.90597        2.87899
C         12.11161        5.04637        2.10802
C         13.49841        5.21525        2.07484
C         14.09460        6.23660        2.81931
C         14.39939        9.54890        7.25148
C         17.61558        5.16824        8.81690
C         17.96623        4.53436       10.15642
C         19.45259        4.69143       10.48895
C         19.77659        4.02073       11.82717
O         18.95677        3.43263       12.48912
O         21.06359        4.11695       12.24632
H          0.42717       -0.64573       -1.47969
H          0.45161        1.03127       -0.90168
H          0.18873       -0.29746        0.24313
H          2.79629        0.16408       -1.34925
H          2.53108       -1.14579       -0.20438
H          2.21374        0.55139        1.64412
H          2.51781        1.84824        0.49143
H          4.81875        0.88838        0.04363
H          4.50606       -0.38172        1.22256
H          4.22521        1.38092        3.02146
H          4.58692        2.63127        1.83391
H          6.85001        1.56946        1.42983
H          6.48349        0.35055        2.64627
H          6.28489        2.16468        4.39475
H          6.66500        3.37559        3.17243
H          8.89037        2.24442        2.76258
H          8.51418        1.06559        4.01385
H          8.42454        2.90443        5.73121
H          8.75278        4.09703        4.47720
H         10.94370        2.96099        3.96940
H         10.64586        1.80208        5.25927
H         10.74450        3.59643        6.96691
H         10.79224        4.83832        5.71417
H         12.95636        3.93879        4.85755
H         12.97667        2.71371        6.12321
H         13.16772        4.48607        7.87721
H         12.88119        5.73861        6.66631
H         14.90946        5.12611        5.40894
H         16.65113        2.85465        8.18743
H         14.92867        3.22368        8.60778
H         15.60049        5.19255        9.29992
H         16.59234        6.06010        6.72104
H         15.78876        7.60589        8.58074
H         14.13734        7.00411        8.32692
H         15.89726        8.38096        6.21349
H         14.97964        8.38257        4.10497
H         13.37272        9.08568        4.46334
H         11.30190        7.60291        4.21314
H         10.24011        5.77932        2.90233
H         11.64402        4.25113        1.52669
H         14.11560        4.55492        1.46471
H         15.17841        6.37269        2.78451
H         13.42389        9.41546        7.73955
H         14.28045       10.27853        6.44093
H         15.10029        9.98088        7.97983
H         17.79352        6.25342        8.83087
H         18.18929        4.74130        7.98180
H         17.71831        3.46254       10.16512
H         17.36811        4.99126       10.96111
H         19.73915        5.75514       10.54273
H         20.08167        4.23550        9.70573
H         21.60844        4.61611       11.61225
