78

O          6.12968        5.24857       -4.30394
C          5.05299        4.34854       -4.62517
C          4.28117        4.07566       -3.35412
O          5.18893        3.49090       -2.40718
C          4.65342        3.32606       -1.08015
C          5.81520        2.98656       -0.15378
C          6.86553        4.10077       -0.00690
C          8.00345        3.75094        0.96686
C          8.88453        2.54713        0.60235
C          9.93663        2.24399        1.67873
C         10.86786        1.08776        1.30146
C         11.85948        0.71500        2.40819
C         12.81579       -0.41395        2.01146
C         13.77617       -0.82606        3.13119
C         14.75075       -1.93524        2.72381
C         15.69277       -2.36822        3.85106
C         16.68445       -3.46038        3.43785
C         17.60955       -3.89597        4.57639
N          7.45428        4.45730       -1.39143
C          7.80611        5.90758       -1.30600
C          6.73175        6.46245       -0.35080
O          6.21179        5.30166        0.35290
C          7.24587        7.50875        0.63082
C          7.68501        8.79453       -0.07502
O          8.17616        9.76288        0.87065
C          9.47863        9.58722        1.26986
O         10.16444        8.66567        0.87073
C          9.91032       10.67741        2.22279
C          9.02509       10.81611        3.47651
C          9.02721        9.56981        4.36372
H          6.54947        5.52188       -5.13409
H          5.44775        3.40374       -5.03652
H          4.36561        4.79358       -5.36307
H          3.44714        3.38366       -3.56079
H          3.86900        5.01461       -2.94257
H          3.91052        2.51132       -1.07414
H          4.15568        4.25654       -0.75871
H          6.30144        2.05885       -0.48860
H          5.41758        2.79032        0.85226
H          7.51973        3.57897        1.94062
H          8.63316        4.64426        1.10410
H          9.41623        2.72642       -0.35339
H          8.26849        1.64740        0.44595
H          9.41818        2.00817        2.62358
H         10.53367        3.15061        1.87527
H         11.42512        1.35254        0.38553
H         10.26335        0.20027        1.04434
H         11.29917        0.41940        3.31217
H         12.44526        1.60665        2.69175
H         13.39848       -0.10281        1.12663
H         12.22946       -1.29415        1.69393
H         13.19176       -1.15732        4.00740
H         14.34869        0.05690        3.46530
H         15.34828       -1.59513        1.85966
H         14.17947       -2.81167        2.37038
H         15.09541       -2.72518        4.70857
H         16.25268       -1.48983        4.21777
H         17.28840       -3.09777        2.58890
H         16.12583       -4.33368        3.06086
H         18.19988       -3.04874        4.95574
H         18.31449       -4.67225        4.24886
H         17.03523       -4.30306        5.42180
H          6.69179        4.26720       -2.10172
H          8.26471        3.86454       -1.60778
H          7.76669        6.34481       -2.30877
H          8.81663        6.00834       -0.89075
H          5.88858        6.87219       -0.93336
H          8.09461        7.09560        1.19419
H          6.44329        7.73895        1.34563
H          6.83667        9.28719       -0.56945
H          8.47363        8.59495       -0.81670
H          9.89987       11.62553        1.66166
H         10.95108       10.46189        2.49777
H          7.99867       11.06380        3.16970
H          9.39515       11.67888        4.04950
H          8.62486        8.69251        3.83460
H          8.41120        9.72435        5.25932
H         10.04440        9.31755        4.69645
