41

C          6.54745       -1.71076       -0.47647
C          5.80311       -0.78991        0.49132
C          5.11955        0.39137       -0.20934
C          4.37523        1.33031        0.75427
C          5.28049        2.17671        1.66320
C          4.73461        2.38597        3.08985
N          5.28643        3.69817        3.43909
C          5.55784        4.37951        2.31327
N          5.90279        5.67313        2.30842
N          5.88457        6.34809        3.54471
N          5.46034        3.59543        1.21987
C          5.97426        3.98949       -0.09406
C          4.96761        4.85827       -0.88154
C          5.59379        5.72086       -1.98369
S          6.82260        6.85703       -1.28737
O          6.29254        7.36754       -0.02062
O          8.11863        6.23387       -1.32673
O          6.84678        8.07477       -2.33465
H          7.01138       -2.55233        0.05371
H          7.34557       -1.17213       -1.00783
H          5.86605       -2.12743       -1.23185
H          6.51000       -0.42185        1.25535
H          5.03744       -1.36463        1.03870
H          4.39658        0.00171       -0.94288
H          5.86821        0.95072       -0.79780
H          3.72682        0.71613        1.40057
H          3.69400        2.00292        0.21047
H          6.28489        1.72036        1.72322
H          5.07902        1.60911        3.78168
H          3.63159        2.41030        3.09177
H          5.09297        4.21263        4.29421
H          6.11086        6.18487        1.43732
H          6.82746        6.68181        3.75846
H          5.26682        7.15945        3.47357
H          6.20159        3.07133       -0.64882
H          6.93620        4.51074        0.03740
H          4.43289        5.52043       -0.18660
H          4.20585        4.21685       -1.34726
H          4.82921        6.33705       -2.47345
H          6.12838        5.14359       -2.75007
H          6.32105        8.81865       -1.97847
