43

C          1.03517       -0.19812       -0.16519
C          2.56139       -0.12232       -0.07312
C          3.05647        0.52044        1.22707
C          4.58134        0.62942        1.32139
C          5.06776        1.24328        2.63803
C          6.59154        1.36310        2.73088
C          7.07848        1.90511        4.07917
C          8.60605        2.00851        4.15892
C          9.08911        2.48138        5.51737
O         10.53298        2.53366        5.48768
C         11.11215        2.93065        6.69653
C         12.61045        2.91789        6.52469
C         13.20412        2.56061        5.30214
C         14.59553        2.55140        5.16271
C         15.39010        2.89880        6.24135
N         14.78982        3.23898        7.40715
C         13.44824        3.25879        7.57941
H          0.71060       -0.67262       -1.10124
H          0.58304        0.80414       -0.12671
H          0.61325       -0.78181        0.66661
H          2.95572        0.44569       -0.93275
H          2.98777       -1.13616       -0.16082
H          2.67827       -0.06113        2.08647
H          2.61280        1.52687        1.32713
H          4.95877        1.22945        0.47476
H          5.02773       -0.37376        1.20253
H          4.69843        0.63330        3.48109
H          4.61418        2.24172        2.76669
H          6.95988        2.01429        1.91912
H          7.04691        0.37273        2.55483
H          6.70999        1.24979        4.88715
H          6.62974        2.89673        4.26112
H          8.97677        2.70293        3.38761
H          9.05820        1.02595        3.94680
H          8.77071        1.78869        6.31880
H          8.69622        3.48675        5.75877
H         10.83509        2.25159        7.53137
H         10.78844        3.95024        6.99748
H         12.55201        2.29132        4.47172
H         15.06662        2.27538        4.22091
H         16.47777        2.91949        6.22531
H         15.37983        3.49408        8.19992
H         13.09136        3.54954        8.56705
