140

C         13.43216       -8.30690       -4.87202
C         13.03291       -7.12240       -3.98794
C         13.89905       -5.87820       -4.21283
C         13.50588       -4.68262       -3.33910
C         14.39114       -3.45033       -3.55184
C         13.99842       -2.24833       -2.68670
C         14.90057       -1.02625       -2.88795
C         14.51626        0.17723       -2.02028
C         15.41364        1.39963       -2.24006
C         15.03940        2.61171       -1.37982
C         15.92653        3.83376       -1.64033
C         15.56468        5.06111       -0.79678
C         16.43949        6.28082       -1.10584
C         16.09004        7.52023       -0.27478
C         16.94728        8.73906       -0.63322
C         16.58581        9.99802        0.16365
C         17.43267       11.21425       -0.20467
S         17.25784       11.66485       -1.99915
C         17.36981       13.34114       -1.65025
N         17.33950       13.64636       -0.36639
C         17.06443       12.50531        0.53461
C         17.31058       15.02142        0.17231
C         15.88666       15.58277        0.28825
C         15.87523       17.01933        0.82377
C         14.46706       17.62648        0.83988
C         14.42323       19.06249        1.37247
C         13.01596       19.66848        1.34783
C         12.95053       21.10327        1.88144
C         11.54033       21.70139        1.83928
C         11.46011       23.13462        2.37417
C         10.05043       23.73382        2.31504
C          9.97994       25.17185        2.83504
C         17.53441       14.31940       -2.76316
C         19.02403       14.47360       -3.17438
C         19.18735       15.40460       -4.38096
C         20.62620       15.43621       -4.90836
C         20.80315       16.33716       -6.13673
C         22.21056       16.26250       -6.73887
C         22.41670       17.18276       -7.94692
C         23.79062       17.01758       -8.60570
C         24.03427       17.97046       -9.78077
C         25.39326       17.76796      -10.45943
C         25.66793       18.75509      -11.59881
C         27.02469       18.54527      -12.27911
C         27.32595       19.56422      -13.38316
C         28.69131       19.36200      -14.04795
C         29.01341       20.39904      -15.12951
C         30.38556       20.19294      -15.77630
H         12.79781       -9.18414       -4.68400
H         14.47521       -8.60668       -4.69063
H         13.34341       -8.05587       -5.93971
H         13.09254       -7.41781       -2.92653
H         11.97519       -6.86626       -4.16941
H         13.84580       -5.58559       -5.27673
H         14.95712       -6.13445       -4.02568
H         13.54422       -4.97969       -2.27600
H         12.45286       -4.41565       -3.53829
H         14.35952       -3.15875       -4.61671
H         15.44238       -3.71920       -3.34605
H         14.01706       -2.54368       -1.62263
H         12.95192       -1.96931       -2.90259
H         14.87931       -0.72934       -3.95157
H         15.94729       -1.30795       -2.67640
H         14.54893       -0.11498       -0.95587
H         13.46675        0.45381       -2.22432
H         15.37793        1.68761       -3.30573
H         16.46352        1.12193       -2.03973
H         15.09713        2.33615       -0.31220
H         13.98448        2.88019       -1.56544
H         15.86780        4.10060       -2.71042
H         16.98142        3.56441       -1.45582
H         15.64924        4.80976        0.27483
H         14.50464        5.32120       -0.96396
H         16.34980        6.52715       -2.17873
H         17.50026        6.02077       -0.94429
H         16.20830        7.29215        0.79842
H         15.02456        7.77006       -0.41823
H         16.83306        8.94497       -1.71379
H         18.01404        8.50118       -0.48089
H         16.72821        9.80885        1.24168
H         15.51960       10.24377        0.02713
H         18.50240       10.98725       -0.07682
H         15.99303       12.52246        0.79770
H         17.64949       12.62225        1.45605
H         17.93080       15.65365       -0.47601
H         17.80422       14.98742        1.15364
H         15.28299       14.93768        0.94668
H         15.40665       15.55108       -0.70392
H         16.53701       17.64873        0.20356
H         16.30062       17.03857        1.84150
H         13.80200       16.99028        1.44936
H         14.05292       17.60447       -0.18337
H         15.10439       19.69489        0.77652
H         14.81530       19.08325        2.40412
H         12.33422       19.02999        1.93674
H         12.62971       19.64713        0.31354
H         13.63633       21.74239        1.29795
H         13.32725       21.12523        2.91908
H         10.85439       21.05742        2.41749
H         11.16791       21.67986        0.79980
H         12.15207       23.77739        1.80140
H         11.82270       23.15782        3.41709
H          9.36125       23.09702        2.89532
H          9.68637       23.69998        1.27406
H         10.30634       25.23432        3.88395
H          8.95754       25.57020        2.78199
H         10.62746       25.84072        2.24854
H         17.10531       15.29284       -2.48955
H         16.96585       13.94914       -3.62907
H         19.42698       13.47738       -3.41575
H         19.60753       14.84858       -2.31775
H         18.86233       16.42422       -4.11129
H         18.51284       15.07116       -5.18846
H         20.93610       14.40817       -5.16577
H         21.30888       15.76807       -4.10708
H         20.57049       17.38125       -5.86315
H         20.06380       16.05335       -6.90620
H         22.41841       15.21939       -7.03680
H         22.95637       16.50797       -5.96231
H         22.28145       18.23314       -7.63420
H         21.62850       16.98693       -8.69536
H         23.90249       15.97467       -8.95161
H         24.57949       17.16847       -7.84752
H         23.95462       19.01328       -9.42627
H         23.23081       17.84441      -10.52789
H         25.45730       16.73531      -10.84570
H         26.19392       17.85574       -9.70368
H         25.61323       19.78604      -11.20666
H         24.86480       18.67747      -12.35285
H         27.06891       17.52538      -12.70035
H         27.82357       18.59025      -11.51781
H         27.27492       20.58321      -12.96022
H         26.53403       19.51801      -14.15148
H         28.73788       18.35015      -14.48839
H         29.47975       19.38851      -13.27476
H         28.96147       21.40931      -14.68905
H         28.23058       20.36938      -15.90640
H         31.19158       20.25234      -15.02957
H         30.58896       20.95192      -16.54430
H         30.45614       19.20623      -16.25813
