55

C          5.43503        4.00980       -2.97251
C          4.61703        4.04336       -1.68055
C          5.08098        3.01256       -0.64470
C          4.27363        3.07401        0.65576
C          4.73745        2.11214        1.75531
N          6.16470        2.24981        2.11986
C          6.81363        3.40531        2.33595
N          8.13152        3.55406        2.06227
C          8.58810        4.89458        2.46955
C          7.25686        5.65494        2.65163
N          6.29315        4.52697        2.85389
C          5.16450        4.60001        3.79931
C          5.36551        3.77034        5.07346
C          6.62009        4.14037        5.86821
C          6.89259        6.49546        1.41787
C          5.55375        7.24786        1.47604
C          5.37533        8.17218        2.69071
C          6.42469        9.28754        2.85227
C          6.71171        9.59261        4.32703
N          7.40153        8.44641        4.96291
H          5.07472        4.75703       -3.69156
H          5.37511        3.02634       -3.46042
H          6.49835        4.22084       -2.78215
H          3.55273        3.87265       -1.91065
H          4.67044        5.05076       -1.23244
H          6.15148        3.18587       -0.43379
H          5.01806        1.99827       -1.07560
H          3.21740        2.83523        0.45373
H          4.27575        4.10827        1.03617
H          4.62950        1.07112        1.42303
H          4.11397        2.21709        2.65600
H          6.76151        1.46253        1.88997
H          8.58603        3.02508        1.32636
H          9.21182        5.34081        1.68601
H          9.17553        4.82903        3.39737
H          7.27128        6.27660        3.55949
H          4.23228        4.31761        3.28856
H          5.06695        5.66080        4.05727
H          5.37672        2.69665        4.82735
H          4.46738        3.92712        5.69074
H          7.54122        3.90652        5.31441
H          6.66243        3.57826        6.80942
H          6.64022        5.21206        6.11445
H          6.90294        5.84247        0.52799
H          7.71741        7.21211        1.27559
H          4.72324        6.52278        1.45110
H          5.45851        7.83017        0.54597
H          5.39373        7.57102        3.61354
H          4.37140        8.61940        2.64630
H          6.09355       10.20401        2.34188
H          7.37770        9.00846        2.37226
H          5.76124        9.75022        4.86025
H          7.28103       10.53450        4.41145
H          7.32216        8.50964        5.97850
H          8.40307        8.50315        4.76598
