59

C          8.62788        1.07862        5.91985
C          7.73994        1.41141        4.71879
C          8.35469        2.45647        3.78061
C          7.47166        2.78979        2.57440
C          8.05823        3.85378        1.63922
C          7.14495        4.15965        0.44726
C          7.61491        5.28262       -0.46155
O          8.88469        4.92873       -1.05838
C          9.14240        5.57758       -2.30533
C         10.46453        5.04353       -2.85989
C         10.49176        3.49969       -2.98293
C         11.14799        2.94704       -1.69091
N         11.52156        4.23597       -0.89414
C         11.63962        5.33022       -1.92347
C         12.66498        4.10833        0.07262
C         12.86236        5.34717        0.95709
C         11.65441        5.63942        1.87778
C         11.41373        4.62732        3.00209
C         14.18015        5.18366        1.73160
C         12.33068        2.06913       -1.95481
C         12.43942        0.82789       -1.47524
H          8.15628        0.33193        6.57239
H          8.82692        1.97227        6.52994
H          9.59919        0.67204        5.60065
H          6.76192        1.77726        5.07320
H          7.52825        0.49156        4.14804
H          9.33799        2.09357        3.43051
H          8.55935        3.37922        4.35193
H          6.48622        3.13515        2.93124
H          7.27505        1.86829        1.99894
H          9.04485        3.51140        1.27736
H          8.24618        4.78226        2.20634
H          6.14534        4.44297        0.81708
H          6.99870        3.25023       -0.15906
H          7.73234        6.23255        0.09101
H          6.88314        5.44731       -1.27045
H          9.19544        6.67501       -2.17173
H          8.32372        5.36355       -3.01639
H         10.63504        5.52005       -3.83474
H         11.09209        3.19837       -3.85101
H          9.48795        3.08062       -3.11582
H         10.42302        2.42582       -1.05266
H         10.64337        4.46577       -0.38486
H         12.61348        5.22351       -2.42043
H         11.59256        6.30654       -1.42862
H         13.56483        3.90318       -0.52181
H         12.46222        3.21437        0.67842
H         12.98930        6.22040        0.29503
H         10.73463        5.74428        1.27302
H         11.81206        6.63563        2.31838
H         11.25953        3.60370        2.63128
H         10.51441        4.89328        3.57024
H         12.25088        4.59984        3.71129
H         14.19024        4.26979        2.34183
H         14.33553        6.03532        2.40655
H         15.03953        5.13839        1.04892
H         13.09682        2.46179       -2.63213
H         11.67735        0.39721       -0.82182
H         13.28265        0.18849       -1.73518
