61

C          1.26263       -1.58411        0.57899
C          2.69808       -1.35581        0.10203
C          3.07016        0.12989        0.00927
C          4.51216        0.33521       -0.47468
C          4.84597        1.82166       -0.55119
N          6.23069        2.04731       -1.02504
N          7.03871        1.10594       -1.43297
N          8.18081        1.66096       -1.80776
C          8.08235        2.98866       -1.62776
N          6.85403        3.25453       -1.11527
C          6.21936        4.52843       -0.81177
C          5.23934        4.93473       -1.93708
O          5.00858        4.22483       -2.89269
O          4.72349        6.12146       -1.64991
C          3.71741        6.66134       -2.59472
C          3.05110        7.84827       -1.93156
C          1.97503        8.46854       -2.83646
C          1.28458        9.66973       -2.18545
C          9.13144        3.99476       -1.90566
C         10.46391        3.39245       -2.36543
C         11.61757        4.23035       -1.77518
O         11.41761        5.00505       -0.83901
N         12.82700        3.98959       -2.35438
C         14.11225        4.48810       -2.01873
C         15.19376        3.98383       -2.75963
C         16.48978        4.41967       -2.49596
C         16.72011        5.36324       -1.49071
C         15.64147        5.86116       -0.75677
C         14.33506        5.43511       -1.00734
H          1.03118       -2.65576        0.63136
H          0.53399       -1.12086       -0.10208
H          1.09955       -1.16092        1.58088
H          2.83990       -1.82457       -0.88578
H          3.40156       -1.86251        0.78307
H          2.93591        0.60208        0.99810
H          2.37097        0.64015       -0.67537
H          4.64592       -0.12080       -1.46637
H          5.21649       -0.16853        0.20394
H          4.76555        2.29859        0.43842
H          4.18590        2.34861       -1.25629
H          7.01444        5.27657       -0.70191
H          5.69385        4.46647        0.15065
H          3.01262        5.85168       -2.82910
H          4.25208        6.93524       -3.51553
H          3.81256        8.60422       -1.68218
H          2.59758        7.52530       -0.98048
H          1.22388        7.70266       -3.09102
H          2.43226        8.77795       -3.79070
H          0.79915        9.38942       -1.23930
H          0.51162       10.08420       -2.84530
H          2.00197       10.47397       -1.96748
H          9.35972        4.57291       -0.98497
H          8.74768        4.72549       -2.63617
H         10.52478        3.33459       -3.46077
H         10.56775        2.36316       -1.99032
H         12.82805        3.32130       -3.12036
H         15.01687        3.24446       -3.54509
H         17.32003        4.01966       -3.07840
H         17.73269        5.70918       -1.28393
H         15.81266        6.59800        0.02873
H         13.50031        5.82502       -0.43204
