64

C          1.09265       -0.05019        0.53599
C          2.60576       -0.12193        0.31730
C          2.99848       -0.58952       -1.08880
C          4.51264       -0.66200       -1.30737
C          4.91925       -1.12801       -2.70928
C          6.43680       -1.19904       -2.90526
C          6.86739       -1.65948       -4.30195
C          8.38858       -1.73011       -4.46586
C          8.84922       -2.18439       -5.85553
C         10.37658       -2.25075       -5.97048
C         10.86047       -2.69160       -7.34057
O         12.29748       -2.72118       -7.31070
C         12.87387       -3.20357       -8.50902
C         14.36476       -3.25546       -8.26887
C         15.11762       -2.31148       -8.92072
N         16.46177       -2.21023       -8.70749
C         17.14579       -2.96669       -7.84583
C         16.44274       -3.96466       -7.12297
C         15.02221       -4.14507       -7.35054
C         14.36902       -5.20840       -6.63434
C         13.01072       -5.59274       -6.80456
C         11.89691       -6.06959       -6.86168
C         15.10684       -5.97118       -5.72044
C         16.47229       -5.75095       -5.48618
C         17.14013       -4.77065       -6.18604
C         18.61985       -2.66333       -7.68715
C         19.20590       -1.86380       -8.81639
C         19.37169       -0.53354       -8.86248
Br        18.85260        0.62199       -7.46027
Br        19.75461       -2.88396      -10.33353
H          0.84733        0.28806        1.55214
H          0.62080       -1.03360        0.39094
H          0.61917        0.64872       -0.16970
H          3.05414       -0.80103        1.06249
H          3.05286        0.86887        0.50669
H          2.55199        0.08984       -1.83638
H          2.55254       -1.58168       -1.28041
H          4.95588       -1.34045       -0.55694
H          4.95588        0.33068       -1.11254
H          4.48368       -0.44783       -3.46229
H          4.47729       -2.12030       -2.90813
H          6.86821       -1.88007       -2.15028
H          6.87628       -0.20699       -2.69940
H          6.44752       -0.97492       -5.05980
H          6.42832       -2.65035       -4.51351
H          8.80414       -2.41478       -3.70560
H          8.82420       -0.73940       -4.24735
H          8.44729       -1.49522       -6.61817
H          8.41505       -3.17424       -6.08033
H         10.77883       -2.95029       -5.21958
H         10.81169       -1.26394       -5.74422
H         10.52211       -1.99497       -8.13187
H         10.47790       -3.69892       -7.59503
H         12.66784       -2.52222       -9.35799
H         12.47777       -4.19742       -8.78258
H         14.69252       -1.59548       -9.62046
H         16.99867       -1.50086       -9.21953
H         10.90597       -6.46965       -6.93080
H         14.58736       -6.76592       -5.18572
H         17.00123       -6.36851       -4.76080
H         18.20352       -4.61518       -6.01549
H         19.17637       -3.60366       -7.58454
H         18.75158       -2.10165       -6.74513
H         19.82845       -0.01677       -9.70393
