117

C          5.81809       -4.21884        3.22603
C          5.84333       -2.71189        2.95769
C          5.85328       -2.36170        1.46516
C          5.89704       -0.85561        1.18921
C          5.88176       -0.50186       -0.30160
C          5.93060        1.00677       -0.56236
C          5.88976        1.37491       -2.04909
C          5.93907        2.89545       -2.24460
N          5.88237        3.32936       -3.64984
C          4.73766        3.65100       -4.28363
S          4.66625        4.18217       -5.87658
S          3.26782        3.40212       -3.27544
C          1.97415        4.13488       -4.30810
C          1.94511        5.65998       -4.17401
C          0.99020        6.30642       -5.18655
N          1.12593        7.77031       -5.15170
N          0.59390        8.48895       -4.12459
C          0.95086        9.73170       -4.35836
N          1.71079        9.81204       -5.48904
C          1.80605        8.55577       -6.00240
N          2.51085        8.18314       -7.12299
C          2.13529        8.51834       -8.43575
O          2.82561        8.26057       -9.39209
C          0.82290        9.32726       -8.62686
C          0.10609        9.14123      -10.02283
C         -0.19356        7.66748      -10.51762
C         -0.64885        6.68494       -9.39549
O          0.09083        6.42912       -8.47235
O         -1.86278        6.15723       -9.53504
F         -1.17706        7.77242      -11.47333
F          0.90276        7.14730      -11.10823
F         -1.09678        9.77079       -9.89564
F          0.82423        9.76757      -10.97468
F         -0.10756        9.08132       -7.64992
F          1.16191       10.65350       -8.51914
C          3.81204        7.46556       -6.94387
C          4.65410        8.00721       -5.79260
C          5.22218        9.42605       -5.94370
C          6.76269        9.55105       -6.23217
C          7.38672        8.89018       -7.52690
C          7.01149        9.37083       -8.98686
C          7.23911       10.86215       -9.46402
C          8.66937       11.53917       -9.43257
C          9.88697       10.93859      -10.24668
C          9.75436       10.77464      -11.80714
F          9.31411       11.90882      -12.37640
F         10.96675       10.47828      -12.30287
F          8.91091        9.77224      -12.11453
F         10.91760       11.79147      -10.02102
F         10.20888        9.72622       -9.72761
F          8.46878       12.80732       -9.87106
F          9.07532       11.59724       -8.13637
F          6.78941       10.90616      -10.74401
F          6.43128       11.65528       -8.70925
F          7.69107        8.55026       -9.82233
F          5.67911        9.13369       -9.16025
F          8.72677        8.97930       -7.39136
F          7.04607        7.56238       -7.49329
F          7.10024       10.85906       -6.19745
F          7.37698        8.92395       -5.18359
F          4.53590       10.16011       -6.88984
F          5.03583       10.09647       -4.75418
C          7.17425        3.41098       -4.35394
C          7.85689        4.77575       -4.19322
C          9.04715        4.93753       -5.14409
C          9.78110        6.27072       -4.96373
C         10.78842        6.57378       -6.07742
C         11.45264        7.94771       -5.93951
C         12.29881        8.34816       -7.15333
C         12.78875        9.79694       -7.09543
H          5.80296       -4.43562        4.30288
H          6.70281       -4.71501        2.80009
H          4.92929       -4.68976        2.78020
H          6.72921       -2.26587        3.44090
H          4.96924       -2.23671        3.43480
H          4.95924       -2.79611        0.98377
H          6.72020       -2.84704        0.98292
H          6.79974       -0.42482        1.65726
H          5.03908       -0.36893        1.68616
H          4.97545       -0.92407       -0.76942
H          6.73622       -0.98803       -0.80372
H          6.84353        1.42694       -0.10481
H          5.08338        1.49177       -0.04606
H          4.97346        0.97596       -2.51215
H          6.73671        0.90708       -2.57698
H          6.87145        3.30145       -1.82404
H          5.11575        3.37907       -1.69739
H          1.04206        3.66757       -3.95885
H          2.17071        3.82691       -5.34612
H          2.96300        6.03167       -4.35791
H          1.65979        5.95381       -3.15408
H         -0.06327        6.08992       -4.96738
H          1.19580        5.99503       -6.21856
H          0.68040       10.58061       -3.73863
H          2.14771       10.63625       -5.90035
H         -2.27919        6.48624      -10.35883
H          4.31483        7.54592       -7.91309
H          3.62250        6.39770       -6.75179
H          5.47038        7.29168       -5.63200
H          4.08788        8.00630       -4.84949
H          6.98602        3.20470       -5.41514
H          7.81130        2.60716       -3.95682
H          8.17983        4.91628       -3.14838
H          7.11668        5.56464       -4.40348
H          8.67900        4.86102       -6.18186
H          9.75504        4.10165       -5.01020
H         10.28848        6.28523       -3.98375
H          9.03973        7.08618       -4.92940
H         10.26615        6.52470       -7.04930
H         11.56027        5.78581       -6.11184
H         12.07601        7.97201       -5.02893
H         10.66974        8.70971       -5.78252
H         11.70283        8.20023       -8.06928
H         13.16002        7.66536       -7.24293
H         11.94246       10.49989       -7.05915
H         13.39423       10.05411       -7.97535
H         13.40640        9.97841       -6.20342
