81

C          1.62820        2.76608        0.65174
C          2.36163        1.42266        0.64553
C          2.93347        1.05138       -0.72783
C          3.65331       -0.30101       -0.74411
C          4.28522       -0.63867       -2.09961
C          4.94130       -2.02600       -2.11838
C          5.65064       -2.30206       -3.44526
S          6.17149       -4.06343       -3.44737
C          7.23003       -4.08226       -4.80667
N          7.63732       -3.11183       -5.59417
N          8.51105       -3.69151       -6.50343
C          8.57273       -4.95927       -6.22154
O          7.77806       -5.30166       -5.14942
C          9.33025       -6.00399       -6.93879
S         10.53673       -6.85538       -5.79573
C          9.49924       -8.20538       -5.63439
N          8.49881       -8.21373       -6.49340
C          8.45804       -7.15140       -7.52022
C          8.91335       -7.70838       -8.88111
C          8.99930       -6.65672      -10.00253
O         10.19805       -5.92105       -9.72859
C         10.34029       -4.65323      -10.41941
C         11.46412       -3.90953       -9.75252
C         12.78769       -4.09500      -10.17560
C         13.83845       -3.45845       -9.51182
C         13.57298       -2.63106       -8.41663
C         12.25541       -2.43636       -7.99202
C         11.20427       -3.06947       -8.65918
C          9.01615       -7.31384      -11.38238
C          9.68923       -9.26355       -4.60023
C         11.15370       -9.67545       -4.35247
C         11.25813      -10.70094       -3.21996
C         12.70772      -11.13607       -2.94086
N         12.79928      -12.06972       -1.83549
C         12.67653      -13.44170       -1.93549
C         12.67783      -13.96760       -0.65759
C         12.79417      -12.87783        0.25068
C         12.86066      -11.71992       -0.50011
H          1.25398        3.01501        1.65385
H          0.76544        2.75364       -0.03085
H          2.28954        3.58485        0.33106
H          1.67634        0.62649        0.98227
H          3.18186        1.44578        1.38275
H          3.63192        1.84148       -1.05498
H          2.11894        1.04121       -1.47320
H          2.94205       -1.09745       -0.46273
H          4.43777       -0.30773        0.03273
H          5.03548        0.12883       -2.35560
H          3.51590       -0.59035       -2.88905
H          4.16854       -2.79244       -1.93756
H          5.66549       -2.11020       -1.29225
H          6.54721       -1.68349       -3.57626
H          4.98744       -2.15197       -4.30752
H          9.91945       -5.54231       -7.74418
H          7.82314       -8.97685       -6.50081
H          7.41973       -6.79345       -7.59505
H          8.20383       -8.49584       -9.17686
H          9.90455       -8.17903       -8.78346
H          8.13049       -5.96770       -9.93860
H          9.39215       -4.09143      -10.34369
H         10.55941       -4.82936      -11.48522
H         12.99517       -4.74007      -11.03181
H         14.86424       -3.60233       -9.85324
H         14.39195       -2.12843       -7.90032
H         12.04242       -1.78094       -7.14651
H         10.17763       -2.90945       -8.32328
H          9.86482       -8.00638      -11.47064
H          9.10388       -6.56083      -12.17529
H          8.08587       -7.87061      -11.56113
H          9.08019      -10.14141       -4.86791
H          9.26372       -8.86141       -3.66263
H         11.74749       -8.78092       -4.09866
H         11.58040      -10.08170       -5.28331
H         10.66171      -11.59562       -3.46050
H         10.83252      -10.28169       -2.29420
H         13.33040      -10.25886       -2.70616
H         13.14510      -11.61023       -3.83267
H         12.62045      -13.92507       -2.90576
H         12.62230      -15.02158       -0.40567
H         12.84431      -12.93536        1.33311
H         12.96610      -10.68151       -0.20184
