61

C          8.53103        1.04499        3.14483
C          7.89967        1.20826        1.75740
C          6.61435        0.40323        1.64494
O          5.95629        0.63965        0.34197
C          6.25249       -0.16719       -0.65916
O          7.05588       -1.10656       -0.58991
C          5.46117        0.14700       -1.91722
C          6.20593       -0.26032       -3.19828
N          6.64081       -1.71543       -3.09522
C          5.55936       -2.73220       -3.33614
C          4.89174       -2.47554       -4.67865
C          4.32877       -1.04403       -4.80395
C          5.47156       -0.02166       -4.54235
N          5.04384        1.37611       -4.63385
C          6.16403        2.31649       -4.52373
C          4.28630        1.66295       -5.85790
C          3.03869       -0.83480       -3.97933
C          1.77398       -1.33093       -4.69094
C          0.52708       -1.18788       -3.81548
C         -0.76219       -1.65115       -4.51111
N         -1.92693       -1.53499       -3.65234
C         -2.35277       -2.49326       -2.75505
C         -3.38387       -1.95537       -2.00759
C         -3.58388       -0.62079       -2.45947
C         -2.66859       -0.38596       -3.46853
H          9.44958        1.63994        3.21976
H          8.79588       -0.00251        3.34768
H          7.85176        1.38192        3.94062
H          8.60637        0.87663        0.98108
H          7.67536        2.26852        1.56459
H          5.85959        0.73185        2.37000
H          6.78913       -0.67510        1.75178
H          5.22697        1.21660       -1.96526
H          4.48691       -0.35585       -1.82693
H          7.16084        0.28451       -3.21739
H          7.01134       -1.77207       -2.09341
H          7.41177       -1.87641       -3.75391
H          4.85798       -2.65686       -2.49521
H          6.03319       -3.72060       -3.28465
H          4.08734       -3.21199       -4.81252
H          5.61617       -2.66829       -5.48742
H          4.06126       -0.92270       -5.86432
H          6.24325       -0.23478       -5.32888
H          6.62774        2.28787       -3.52872
H          5.78439        3.33494       -4.66480
H          6.95584        2.13891       -5.28266
H          3.34210        1.10828       -5.88273
H          4.85430        1.43582       -6.78413
H          4.03716        2.73041       -5.86693
H          2.92789        0.23350       -3.74049
H          3.10896       -1.35274       -3.00733
H          1.89299       -2.38721       -4.98964
H          1.64157       -0.76534       -5.62949
H          0.40309       -0.13751       -3.50626
H          0.65164       -1.77005       -2.88760
H         -0.67205       -2.70176       -4.82718
H         -0.94125       -1.05817       -5.42116
H         -1.89946       -3.47952       -2.73985
H         -3.94742       -2.47361       -1.23866
H         -4.32888        0.08276       -2.10234
H         -2.49205        0.49259       -4.08120
