60

C          1.17897        0.51765        0.21577
C          2.69967        0.56578        0.05398
C          3.15542        0.44397       -1.40551
C          4.68147        0.51577       -1.55957
C          5.10109        0.40395       -3.01026
O          6.57648        0.52107       -3.06360
C          7.13732        0.50701       -4.25890
O          6.51391        0.42364       -5.32088
C          8.66127        0.56623       -4.19076
C          9.30333        1.24378       -5.41167
C          8.96262        2.74623       -5.50755
N          9.39912        3.40067       -6.72302
C          8.86523        2.71817       -7.89254
C          9.16622        1.20382       -7.98473
N          8.78707        0.55732       -6.66634
C         10.59282        0.79931       -8.36402
C         10.76973        0.85215       -9.87858
O          9.88495        1.13342      -10.66170
O         12.02430        0.51061      -10.21427
C         12.30371        0.47495      -11.63896
C         10.74077        4.03260       -6.72973
C         11.05700        4.67138       -8.08434
O         11.49549        3.68107       -9.02373
C         10.82377        5.15103       -5.66336
C         12.25360        5.44849       -5.20387
H          0.88845        0.61430        1.27004
H          0.76451       -0.43052       -0.15693
H          0.69094        1.33321       -0.33819
H          3.16174       -0.24137        0.64630
H          3.08601        1.50951        0.47448
H          2.68609        1.24566       -2.00158
H          2.78340       -0.50625       -1.82628
H          5.15729       -0.28962       -0.97811
H          5.05265        1.46839       -1.14929
H          4.68261        1.20521       -3.63521
H          4.83039       -0.56273       -3.45852
H          9.02064       -0.47173       -4.08329
H          8.96941        1.08644       -3.27468
H         10.39284        1.10204       -5.38917
H          9.39944        3.23215       -4.62706
H          7.86641        2.86280       -5.41779
H          9.22560        3.17699       -8.81753
H          7.76646        2.83581       -7.88223
H          8.48120        0.77029       -8.72834
H          9.10783       -0.41955       -6.67452
H          7.73851        0.51726       -6.51006
H         10.80669       -0.23870       -8.05289
H         11.36212        1.43375       -7.90762
H         13.33541        0.12306      -11.72010
H         12.20032        1.47816      -12.07064
H         11.61397       -0.21102      -12.14481
H         11.54794        3.29615       -6.52195
H         11.85124        5.41856       -7.93189
H         10.15844        5.20463       -8.44669
H         11.74378        4.12941       -9.84643
H         10.22364        4.88485       -4.78295
H         10.34576        6.05707       -6.07003
H         12.71129        4.56816       -4.72948
H         12.26394        6.26448       -4.47014
H         12.90791        5.75098       -6.03355
