50

C          2.90907        1.42332        6.34532
C          2.37402        0.73812        5.08470
C          2.81123        1.39727        3.78618
O          4.24897        1.33045        3.69465
C          4.74757        1.87609        2.49009
C          6.25262        1.81503        2.48557
C          7.00482        2.96806        2.48529
C          8.41880        2.95959        2.39745
C          9.22340        4.13949        2.40646
C          8.61655        5.52305        2.52175
C          7.87483        5.96616        1.28048
C          6.64000        6.47434        1.27733
C         10.59754        3.98067        2.29296
C         11.21746        2.71306        2.17378
C         10.46112        1.56374        2.17396
C          9.05028        1.67334        2.29016
C          8.23795        0.53249        2.31859
N          6.90358        0.58964        2.42665
C          6.16451       -0.70885        2.50884
C          6.56130       -1.56144        3.73236
C          6.40520       -0.81498        5.06229
C          5.72527       -2.84869        3.69961
H          2.54988        0.91339        7.24824
H          2.57596        2.46992        6.40107
H          4.00677        1.42045        6.37228
H          1.27271        0.73690        5.09230
H          2.67852       -0.32109        5.06365
H          2.49792        2.45846        3.75382
H          2.36502        0.88484        2.91305
H          4.45675        2.93618        2.37678
H          4.34089        1.34044        1.60567
H          6.46969        3.91410        2.52864
H          9.43686        6.23172        2.71839
H          7.94845        5.57929        3.39599
H          8.42583        5.87378        0.33926
H          6.06704        6.59899        2.19991
H          6.16630        6.81269        0.35615
H         11.22990        4.87067        2.30065
H         12.30254        2.65602        2.08751
H         10.92602        0.58085        2.09088
H          8.67076       -0.46585        2.26131
H          6.36769       -1.25150        1.57491
H          5.09816       -0.47460        2.55774
H          7.62137       -1.85051        3.61713
H          5.36068       -0.52667        5.23560
H          7.01251        0.10039        5.10588
H          6.72655       -1.45902        5.89092
H          4.65465       -2.62841        3.82550
H          6.02372       -3.51566        4.51838
H          5.85139       -3.40019        2.75732
