66

C          5.18281        1.30985       -1.88478
C          4.46010        0.74343       -0.65877
C          2.91878        0.68971       -0.75907
C          2.52733       -0.32917       -1.84037
N          1.07130       -0.41999       -2.10573
C          0.23088        0.68413       -2.06088
C         -1.04283        0.27117       -2.35452
N         -0.92677       -1.08057       -2.59362
C          0.34395       -1.51394       -2.44857
C          0.68569       -2.98399       -2.63915
C          0.28621       -3.76138       -1.32266
C          0.57926       -5.26758       -1.40150
C          0.90471       -3.16062       -0.05377
C         -0.16608       -3.49741       -3.85067
O         -1.58994       -3.42623       -3.67612
C          2.15028       -3.22854       -3.06058
C         -2.34768        1.02907       -2.41604
C         -2.68806        1.66941       -1.03688
C         -3.15192        0.77079        0.12915
C         -2.10908       -0.25502        0.60116
C         -3.57696        1.66864        1.30173
C         -2.18513        2.17326       -3.46774
O         -1.17313        3.12253       -3.14542
C         -3.48906        0.12432       -2.91320
C          2.29176        0.36355        0.60215
H          6.25787        1.40687       -1.68567
H          4.80565        2.30972       -2.14494
H          5.08293        0.67218       -2.77488
H          4.70486        1.36192        0.21806
H          4.84217       -0.26545       -0.42400
H          2.58655        1.69340       -1.07654
H          2.86505       -1.31971       -1.52442
H          3.01881       -0.08891       -2.79316
H          0.59537        1.67484       -1.83233
H         -1.66046       -1.73623       -2.89214
H         -0.80696       -3.63700       -1.22778
H          1.65793       -5.47640       -1.41918
H          0.13151       -5.75473       -2.27875
H          0.16890       -5.76639       -0.51387
H          2.00380       -3.20973       -0.06335
H          0.57001       -3.72550        0.82596
H          0.60614       -2.11653        0.10165
H          0.13608       -4.52878       -4.07689
H          0.06257       -2.88505       -4.73476
H         -1.90571       -4.24870       -3.27100
H          2.85308       -3.17328       -2.22251
H          2.47602       -2.52061       -3.83364
H          2.24521       -4.23636       -3.48402
H         -3.49334        2.40044       -1.22541
H         -1.81671        2.25589       -0.70090
H         -4.04804        0.21565       -0.19783
H         -1.15756        0.23506        0.85973
H         -1.89589       -1.02717       -0.14944
H         -2.46669       -0.77277        1.50180
H         -2.72309        2.24714        1.68743
H         -3.97369        1.06995        2.13272
H         -4.35646        2.38297        1.00249
H         -3.16393        2.66458       -3.59680
H         -1.90042        1.73036       -4.43427
H         -1.57138        3.84497       -2.63731
H         -3.64667       -0.75018       -2.26707
H         -3.31218       -0.23059       -3.93942
H         -4.43238        0.68583       -2.92072
H          2.65048       -0.60581        0.97988
H          1.19442        0.32282        0.56322
H          2.56550        1.12759        1.34108
