65

C          5.03863        5.42021        7.57665
C          5.94222        6.39732        6.82042
C          6.09807        6.05052        5.33507
C          7.03034        7.00197        4.57806
C          7.19549        6.63953        3.09745
C          8.18238        7.56074        2.36715
C          8.36767        7.14712        0.90606
S          9.61536        8.26751        0.15823
C          9.88251        7.46689       -1.34488
N          9.33182        6.40423       -1.87501
N          9.93854        6.22139       -3.12507
C         10.81316        7.17094       -3.23039
O         10.86422        8.01808       -2.16725
N         11.71117        7.44036       -4.25677
C         12.10794        6.58601       -5.25197
N         12.27384        5.28304       -5.04509
C         12.41513        4.56266       -3.76474
C         13.04315        3.18787       -3.98615
C         14.44740        3.19738       -4.60056
C         15.08110        1.80629       -4.69902
C         16.45682        1.82051       -5.37563
C         17.08983        0.43263       -5.49334
N         12.37859        7.15909       -6.44066
C         13.11755        6.54217       -7.56163
C         13.00590        7.52232       -8.73671
O         11.63809        7.92089       -8.83255
C         14.58543        6.27860       -7.22211
H          4.93920        5.70056        8.63412
H          5.44039        4.39647        7.54119
H          4.02717        5.39279        7.14448
H          6.93862        6.41978        7.29370
H          5.54109        7.42071        6.91389
H          5.10399        6.05013        4.85443
H          6.47881        5.01796        5.24116
H          8.02206        7.00422        5.06370
H          6.65049        8.03508        4.66195
H          6.21389        6.67630        2.59530
H          7.54366        5.59562        3.01366
H          9.15666        7.53484        2.88232
H          7.82630        8.60290        2.41992
H          7.43841        7.23285        0.32781
H          8.74613        6.12066        0.81542
H         11.97166        8.41680       -4.37887
H         12.33881        4.71308       -5.88495
H         11.42002        4.46959       -3.30482
H         13.04031        5.18038       -3.10094
H         12.36100        2.57342       -4.59942
H         13.07048        2.69717       -3.00108
H         15.10207        3.86325       -4.01109
H         14.41440        3.62955       -5.61689
H         14.40524        1.13513       -5.25723
H         15.17014        1.37317       -3.68801
H         17.13096        2.48918       -4.81450
H         16.35818        2.26544       -6.38126
H         17.25019       -0.01939       -4.50386
H         18.06389        0.47976       -5.99761
H         16.44993       -0.25134       -6.06987
H         11.76421        7.92035       -6.73939
H         12.60825        5.60721       -7.86224
H         13.35177        7.01226       -9.65022
H         13.66211        8.39245       -8.55287
H         11.53971        8.56533       -9.55055
H         15.09393        7.21563       -6.95931
H         15.09347        5.84164       -8.09202
H         14.70571        5.57879       -6.38749
