43

C          3.18456       -1.91189        3.84781
C          3.21932       -0.93965        2.93461
C          2.93429       -1.14528        1.47205
C          4.18391       -0.89437        0.61113
O          4.76706        0.37877        0.76447
C          4.02968        1.41560        0.12342
C          4.67399        2.75201        0.44161
C          4.59965        3.10378        1.93199
C          5.24368        4.45744        2.25437
C          5.18234        4.80157        3.74393
N          4.05255        1.15139       -1.32939
C          4.00553       -0.12418       -1.75416
N          4.06636       -0.43393       -3.06497
C          3.78966        0.46712       -4.18713
C          2.41541        0.18446       -4.81162
C          2.08838        1.16674       -5.92854
F          2.07598        2.44743       -5.46302
F          3.00800        1.11049       -6.92642
F          0.87740        0.90950       -6.46168
N          3.88840       -1.09501       -0.83669
H          3.39845       -1.71254        4.89731
H          2.93039       -2.94151        3.58590
H          3.47328        0.07991        3.23734
H          2.11807       -0.48609        1.13182
H          2.59845       -2.17905        1.29169
H          4.97692       -1.60438        0.89150
H          2.97698        1.39490        0.45455
H          4.16373        3.52730       -0.15432
H          5.72550        2.71649        0.11009
H          5.09636        2.31239        2.51468
H          3.54341        3.11359        2.25288
H          4.74551        5.24840        1.66912
H          6.29442        4.44656        1.91986
H          4.14363        4.85639        4.10096
H          5.65299        5.77231        3.94572
H          5.70465        4.04762        4.35082
H          4.51311        1.83703       -1.92147
H          4.19435       -1.41609       -3.29069
H          4.59054        0.35056       -4.92952
H          3.82884        1.50501       -3.83637
H          1.62222        0.26922       -4.05595
H          2.37516       -0.82742       -5.23905
H          3.65444       -2.03322       -1.14560
