48

C          5.94567       -1.00472        0.33426
C          5.53389       -0.94628       -1.12148
O          5.81452        0.38600       -1.70106
C          4.86867        1.30717       -1.55087
O          3.77233        1.14125       -1.03838
N          5.30206        2.54965       -2.08797
C          4.39923        3.58898       -2.28415
N          4.76081        4.59409       -3.09965
C          3.75639        5.63434       -3.34215
O          2.46306        5.05868       -3.37295
C          2.12777        4.52241       -2.10330
N          3.22034        3.60311       -1.68276
C          0.81727        3.76042       -2.17278
C         -0.44192        4.68013       -2.30852
N         -0.58059        5.36579       -3.59649
N         -1.58945        3.81116       -2.04248
N         -0.33621        5.74381       -1.30916
C          6.73062        2.75924       -2.40257
C          7.06374        2.59319       -3.88844
O          6.43656        3.17257       -4.76946
O          8.11068        1.80380       -4.06889
C          8.58013        1.59597       -5.45573
C          7.91298        0.37760       -6.06089
H          5.79396       -2.02826        0.70411
H          5.33794       -0.33310        0.95378
H          7.00713       -0.75502        0.45984
H          4.46759       -1.15702       -1.26648
H          6.13232       -1.61360       -1.75161
H          5.38579        4.30244       -3.87885
H          3.94820        6.07850       -4.32421
H          3.82479        6.40669       -2.55726
H          2.04313        5.33667       -1.36228
H          3.01247        2.76628       -1.11961
H          0.71203        3.18995       -1.23614
H          0.85529        3.03816       -3.00259
H         -0.72883        4.69314       -4.34884
H          0.25805        5.90198       -3.82601
H         -1.58840        2.98462       -2.64531
H         -2.44958        4.32661       -2.24425
H         -0.99134        6.48632       -1.55970
H         -0.61748        5.37826       -0.39752
H          7.31833        2.06558       -1.79868
H          6.99319        3.78790       -2.11397
H          9.66119        1.46321       -5.33650
H          8.37625        2.51097       -6.02488
H          8.08614       -0.51560       -5.44747
H          8.34120        0.19303       -7.05568
H          6.83319        0.52977       -6.18289
