57

C          3.65334        2.62550       -4.79068
C          2.74296        1.78767       -3.90197
C          3.06306        0.28517       -4.05628
S          2.34126       -0.68671       -2.68304
C          0.54374       -0.34272       -2.82433
C         -0.29776       -1.21890       -1.89318
C          0.01979       -1.14335       -0.38483
C         -0.22382        0.26885        0.18198
C          0.19668        0.45336        1.65368
C          0.04870        1.87675        2.11293
C         -0.73413        2.35145        3.10030
C         -1.63740        1.51122        3.96342
C         -0.75279        3.82183        3.42722
C         -0.80232       -2.21434        0.34521
C          2.46676       -2.39324       -3.34395
C          3.90676       -2.92033       -3.36057
C          4.60066       -3.02606       -1.99117
C          4.02606       -4.13395       -1.11022
S          4.75279       -4.16027        0.55028
O          4.16315       -5.24054        1.29752
O          6.17776       -3.96278        0.45352
Cl         3.94176       -2.37367        1.31961
O          2.80281        2.15774       -2.52428
H          3.56041        2.33866       -5.84701
H          4.70795        2.50549       -4.49761
H          3.38126        3.68474       -4.70238
H          1.69610        1.95230       -4.20199
H          4.14535        0.10500       -3.97297
H          2.69777       -0.12313       -5.00983
H          0.26870       -0.47229       -3.88080
H          0.47473        0.72027       -2.55593
H         -0.26019       -2.26593       -2.23375
H         -1.34115       -0.89893       -2.05792
H          1.09139       -1.38556       -0.23695
H         -1.29514        0.51440        0.07868
H          0.32156        1.01876       -0.41656
H          1.25425        0.14413        1.75398
H         -0.38205       -0.22303        2.29661
H          0.65952        2.60445        1.56476
H         -1.63664        0.44668        3.70207
H         -2.67531        1.87518        3.90010
H         -1.34708        1.59786        5.02276
H         -0.08421        4.39731        2.77463
H         -0.44971        3.99550        4.47230
H         -1.77070        4.23291        3.32951
H         -1.87947       -2.00332        0.26340
H         -0.54979       -2.25847        1.41103
H         -0.62555       -3.21511       -0.07501
H          2.01534       -2.39678       -4.34576
H          1.82408       -2.98218       -2.67454
H          4.52323       -2.30058       -4.02819
H          3.86452       -3.91098       -3.84094
H          4.54230       -2.06533       -1.45566
H          5.66885       -3.22322       -2.15179
H          4.25954       -5.13924       -1.49541
H          2.94404       -4.07001       -0.93471
H          3.69129        2.49093       -2.31529
