42

C          4.15380       -4.77289       -1.90029
C          3.07129       -4.59696       -0.83047
C          2.88798       -3.16620       -0.27234
C          2.70455       -2.04374       -1.32914
C          1.37870       -2.02155       -2.08431
N          1.23536       -3.17808       -2.98263
C          0.86882       -3.10820       -4.25685
N          0.60608       -4.21845       -4.96504
N          0.76004       -1.90518       -4.84094
C          1.25696       -0.69956       -4.19117
O          1.19290       -0.78800       -2.80190
C          2.73152       -0.43809       -4.70861
C          3.50236        0.80930       -4.17785
F          3.63701        0.72848       -2.82660
F          4.73767        0.78614       -4.74250
F          3.46240       -1.55877       -4.43401
F          2.67163       -0.32107       -6.07737
C          0.24890        0.48258       -4.53544
C          0.08233        0.91408       -6.02671
F         -0.24576       -0.20274       -6.78167
F         -0.94099        1.78573       -6.10020
F         -0.96583        0.10609       -4.06412
F          0.65935        1.58706       -3.84931
C          1.80137       -3.14084        0.81289
H          4.28378       -5.83249       -2.15602
H          5.12332       -4.40318       -1.53809
H          3.93713       -4.23233       -2.83440
H          3.31146       -5.24655        0.02539
H          2.09809       -5.00799       -1.17794
H          3.84489       -2.91056        0.21345
H          3.53058       -2.05253       -2.05135
H          2.75095       -1.07558       -0.81000
H          0.52989       -2.03749       -1.38227
H          1.53017       -4.07170       -2.59141
H          0.49622       -5.11637       -4.50966
H          0.53630       -4.19183       -5.97509
H          0.29818       -1.80497       -5.74297
H          3.00230        1.75395       -4.43970
H          0.98960        1.36582       -6.45174
H          0.82226       -3.47689        0.43569
H          1.67082       -2.13452        1.23430
H          2.06644       -3.81220        1.64014
