88

C          2.29985       -1.59879       -2.12232
C          3.70331       -1.09923       -1.77004
C          3.71884       -0.10002       -0.60745
C          5.12036        0.40016       -0.24207
C          5.12668        1.43653        0.88670
C          6.52909        1.92212        1.26909
C          6.52591        3.03195        2.32683
C          7.93106        3.47718        2.74524
C          7.93684        4.64785        3.73621
C          9.35389        5.02433        4.18931
C          9.38421        6.21028        5.13677
O         10.76575        6.42593        5.52875
C         10.98334        7.41832        6.51871
C         12.47927        7.32176        6.87372
N         12.88274        5.86907        6.75174
C         14.05992        5.83881        5.69489
O         14.56397        7.12444        5.77916
C         13.45394        8.04073        5.89452
C         14.01324        9.36558        6.38832
C         12.98791       10.48235        6.62290
C         13.68829       11.76972        7.07281
C         12.72222       12.91553        7.41168
N         13.41930       14.10773        7.85805
C         13.93350       15.08663        7.03134
C         14.66828       15.96344        7.80682
C         14.60734       15.49589        9.14975
C         13.83777       14.34783        9.15194
C         15.06039        4.80074        5.99509
N         15.23628        3.68682        5.34832
N         16.25447        3.01049        5.98634
C         16.62911        3.76911        6.99783
O         15.89807        4.93839        7.07685
S         17.88271        3.39892        8.12058
C         17.92688        4.89425        9.18296
C         19.03838        4.70005       10.21767
C         19.12887        5.88916       11.18498
C         20.23509        5.71507       12.22856
H          2.32232       -2.30778       -2.96124
H          1.63962       -0.76666       -2.40894
H          1.83134       -2.11053       -1.26839
H          4.16046       -0.62871       -2.65711
H          4.34865       -1.95803       -1.51914
H          3.25400       -0.56533        0.27990
H          3.07877        0.76299       -0.86336
H          5.59665        0.83701       -1.13751
H          5.75138       -0.45945        0.04504
H          4.63218        1.01187        1.77794
H          4.51133        2.30259        0.58531
H          7.04829        2.28627        0.36514
H          7.12475        1.06730        1.63480
H          5.97144        2.68912        3.21789
H          5.96627        3.90071        1.93839
H          8.50741        3.76144        1.84754
H          8.46726        2.62022        3.18931
H          7.32519        4.38748        4.61706
H          7.44962        5.52213        3.27206
H          9.97800        5.25534        3.31092
H          9.81912        4.15826        4.69008
H          8.78303        6.02228        6.04466
H          9.00558        7.12763        4.65445
H         10.35346        7.23507        7.40876
H         10.75828        8.43176        6.14358
H         12.66902        7.64870        7.90352
H         12.05544        5.37319        6.35329
H         13.18342        5.45601        7.63937
H         13.56250        5.59898        4.73923
H         12.96351        8.14474        4.90859
H         14.75534        9.69930        5.64743
H         14.57160        9.16869        7.31874
H         12.25519       10.18126        7.39298
H         12.41135       10.66854        5.70063
H         14.38027       12.11022        6.28656
H         14.30768       11.56286        7.96035
H         12.02370       12.60685        8.20533
H         12.11295       13.17937        6.53363
H         13.72165       15.08143        5.96671
H         15.17678       16.85271        7.44928
H         15.05850       15.95912       10.02118
H         13.53707       13.69235        9.96339
H         16.94864        5.00793        9.67026
H         18.11740        5.76955        8.54745
H         20.00361        4.56712        9.70256
H         18.85614        3.77434       10.78800
H         18.15835        6.01855       11.69290
H         19.30208        6.81436       10.61067
H         20.07460        4.81223       12.83529
H         20.27191        6.57310       12.91215
H         21.22260        5.62610       11.75381
