58

C          0.98144        0.80771        1.12804
C          2.00768        0.18391        0.99270
C          3.25296       -0.56498        0.85593
C          4.18752       -0.35319        2.03459
C          4.38203       -1.38922        2.91210
N          5.20850       -1.26908        4.00743
C          5.35884       -2.45130        4.89036
C          6.21109       -3.54418        4.23308
C          6.01093       -4.88758        4.94983
S          6.40304       -6.31845        3.91318
C          5.00773       -6.36609        2.82906
S          3.65883       -5.41645        2.94753
N          5.14777       -7.35191        1.85294
C          6.31298       -8.05160        1.48697
N          6.08648       -8.89118        0.51853
C          4.73029       -8.77106        0.22204
C          4.13589       -7.83202        1.01260
C          5.87458       -0.13269        4.24418
C          5.73769        0.97801        3.40170
C          4.85965        0.89098        2.26490
C          4.70412        2.02814        1.44505
C          5.38797        3.20964        1.70849
C          5.16404        4.43392        0.86962
C          4.26177        5.45263        1.60920
C          3.85514        6.66449        0.79408
C          4.67073        7.21869       -0.20306
C          4.26982        8.36275       -0.89883
C          3.04821        8.97273       -0.60708
C          2.22606        8.42896        0.38359
C          2.62591        7.28308        1.07228
C          6.27331        3.26532        2.82523
C          6.44534        2.18460        3.65621
H          0.06186        1.34569        1.23214
H          3.76667       -0.27623       -0.07676
H          3.03015       -1.63881        0.75879
H          3.89508       -2.35793        2.80183
H          4.34609       -2.83186        5.08420
H          5.78094       -2.10334        5.84148
H          7.27230       -3.25760        4.22289
H          5.88881       -3.64968        3.18835
H          4.96823       -5.01258        5.27672
H          6.66890       -4.99972        5.82312
H          7.27408       -7.85544        1.95353
H          4.27049       -9.37994       -0.54988
H          3.12251       -7.46169        1.09383
H          6.51623       -0.11570        5.12502
H          4.01879        1.99259        0.59827
H          4.69774        4.15646       -0.08615
H          6.13601        4.89616        0.63774
H          4.77796        5.78450        2.52713
H          3.35213        4.93364        1.94965
H          5.63122        6.76346       -0.45133
H          4.91650        8.77724       -1.67310
H          2.73640        9.86488       -1.15075
H          1.26823        8.89504        0.61791
H          1.97684        6.86306        1.84434
H          6.82099        4.18892        3.01951
H          7.12132        2.24016        4.51074
