75

C          0.73283       -0.03475       -0.98285
C          2.20998       -0.43532       -0.98552
C          2.70987       -0.91833        0.38088
C          4.19126       -1.30940        0.38501
C          4.68965       -1.80009        1.74854
C          6.17462       -2.18102        1.74296
C          6.66626       -2.68535        3.10925
C          8.14711       -3.05530        3.05488
S          8.78843       -3.66177        4.65940
C          8.16335       -5.38976        4.67185
C          8.06462       -5.98568        6.08413
P          9.60153       -6.80175        6.65458
O         10.81580       -5.97385        6.45562
O          9.40228       -7.15105        8.19379
C          8.36722       -8.02730        8.74821
C          8.85523       -9.45405        8.90459
O          9.51512       -8.15406        5.79729
C         10.69443       -9.02453        5.67021
C         10.29477      -10.23195        4.85162
C         10.58862       -3.76302        4.35739
C         11.23656       -2.39279        4.55943
C         12.74689       -2.45474        4.27801
C         13.43776       -1.10438        4.50321
C         14.93478       -1.12825        4.17596
C         15.62870        0.21729        4.41406
C         17.11810        0.21212        4.05109
C         17.80456        1.55801        4.29689
H          0.40680        0.30008       -1.97670
H          0.54210        0.78717       -0.27717
H          0.08972       -0.87785       -0.68999
H          2.82396        0.42016       -1.31411
H          2.37581       -1.22984       -1.73272
H          2.10218       -1.78098        0.70680
H          2.53825       -0.12749        1.13223
H          4.79783       -0.44435        0.06467
H          4.36330       -2.09607       -0.37033
H          4.09000       -2.67115        2.06579
H          4.51578       -1.01768        2.50728
H          6.77771       -1.30940        1.43717
H          6.35090       -2.95971        0.98141
H          6.05960       -3.55632        3.40813
H          6.50668       -1.91150        3.87660
H          8.77145       -2.17541        2.84051
H          8.37014       -3.82688        2.30240
H          8.78850       -5.98390        3.99118
H          7.16301       -5.29307        4.22833
H          7.25105       -6.72570        6.08581
H          7.79795       -5.21812        6.82523
H          7.46275       -7.97901        8.12206
H          8.13286       -7.57642        9.72085
H          8.98468       -9.94996        7.93454
H          8.11326      -10.02780        9.47748
H          9.80507       -9.48402        9.45377
H         11.02777       -9.30952        6.67893
H         11.49571       -8.44314        5.19295
H          9.49069      -10.79769        5.34058
H         11.16011      -10.89857        4.73734
H          9.95566       -9.93903        3.84931
H         10.72479       -4.16346        3.34131
H         10.93208       -4.50736        5.09720
H         11.06522       -2.05889        5.59493
H         10.78119       -1.63510        3.89974
H         12.91199       -2.78448        3.23803
H         13.20589       -3.22149        4.92332
H         13.29542       -0.79327        5.55235
H         12.94312       -0.33327        3.88682
H         15.07250       -1.42918        3.12262
H         15.42955       -1.90763        4.78098
H         15.51240        0.50603        5.47349
H         15.11555        1.00175        3.83003
H         17.23148       -0.07258        2.99125
H         17.62992       -0.57450        4.63090
H         17.33909        2.35947        3.70429
H         18.86832        1.52114        4.02607
H         17.74215        1.85148        5.35528
