50

C          0.97482        2.66870       -1.15182
O          2.28581        2.50315       -1.68052
C          2.94655        1.36632       -1.15763
C          4.33012        1.29202       -1.76524
O          5.14032        2.33854       -1.20638
C          6.31644        2.60221       -1.93762
C          6.84957        3.92587       -1.36900
N          8.37110        4.03848       -1.24334
C          8.62046        5.39180       -0.57702
C         10.04775        5.58443       -0.09163
O         10.40582        4.56412        0.82822
C         10.36739        3.30748        0.16889
C          8.94720        2.92741       -0.29269
C          8.02209        2.63241        0.91390
C          8.58603        1.51367        1.75919
C          8.17544        0.24610        1.67169
C          8.91925        3.94852       -2.73907
C          8.97996        5.30849       -3.44161
O          7.69827        5.92927       -3.46907
C         10.24675        3.22812       -2.97055
H          0.55454        3.56588       -1.62058
H          0.99477        2.80801       -0.05574
H          0.33028        1.80271       -1.38790
H          2.39972        0.43486       -1.40878
H          3.02136        1.42135       -0.05292
H          4.25699        1.42146       -2.85993
H          4.78611        0.30666       -1.55519
H          6.08778        2.70055       -3.01527
H          7.05044        1.77498       -1.83529
H          6.42768        4.06013       -0.36911
H          6.54302        4.77431       -1.98809
H          7.95012        5.41735        0.29079
H          8.29344        6.17005       -1.27475
H         10.10221        6.54075        0.44601
H         10.77458        5.62480       -0.92488
H         10.69674        2.55212        0.89205
H         11.08811        3.30004       -0.66133
H          9.00413        2.01597       -0.90079
H          7.02580        2.32958        0.57097
H          7.90858        3.53272        1.53666
H          9.35703        1.77955        2.48748
H          7.38804       -0.05710        0.97705
H          8.59843       -0.53407        2.30400
H          8.13674        3.35955       -3.23125
H          9.33458        5.09399       -4.46326
H          9.73818        5.95875       -2.96875
H          7.72092        6.68135       -4.08131
H         11.12058        3.82372       -2.68186
H         10.31925        3.04335       -4.05071
H         10.30482        2.24791       -2.48811
