50

N          2.71883        7.87073        2.36420
C          3.08991        6.71633        1.55250
C          2.41983        5.46062        2.11966
C          2.62450        4.18691        1.29645
N          4.04735        3.81041        1.08743
C          5.03329        3.53266        1.97355
C          4.89799        3.56488        3.46706
C          5.98315        2.87027        4.14092
C          6.87781        2.29938        4.71442
N          6.14970        3.20991        1.30336
N          5.87646        3.26846        0.01209
N          4.61979        3.61762       -0.13173
C          3.98265        3.78897       -1.44793
C          3.96472        5.25429       -1.89502
C          3.10392        5.41460       -3.15924
S          2.40044        7.07245       -3.31711
C          1.03173        6.99898       -2.15420
S          0.59781        5.59000       -1.34080
N          0.37571        8.16808       -2.02678
C          0.73348        9.38476       -2.78099
C         -0.02403        9.52284       -4.10374
C         -0.79148        8.29329       -1.13074
C         -0.40932        8.77211        0.27026
H          2.99541        8.74155        1.91253
H          3.17146        7.85435        3.27886
H          4.18647        6.55495        1.46069
H          2.70576        6.88936        0.53557
H          1.33205        5.62512        2.13570
H          2.71711        5.30798        3.16832
H          2.17886        4.32607        0.29992
H          2.14357        3.32009        1.77210
H          3.92489        3.12867        3.75266
H          4.86464        4.62108        3.79075
H          7.67227        1.79334        5.22435
H          2.96321        3.38393       -1.38620
H          4.57498        3.14882       -2.11339
H          4.99032        5.61111       -2.06322
H          3.52646        5.86149       -1.09485
H          2.25970        4.70958       -3.16057
H          3.68870        5.27314       -4.07886
H          1.82076        9.38820       -2.94585
H          0.51888       10.23784       -2.12160
H          0.19618        8.68702       -4.77979
H          0.27290       10.45451       -4.60299
H         -1.10941        9.55960       -3.94196
H         -1.28431        7.31492       -1.08774
H         -1.48189        9.00139       -1.61041
H          0.24665        8.05247        0.77614
H         -1.31673        8.88860        0.87783
H          0.09932        9.74608        0.24409
