78

C          0.57490        2.79319        1.94926
C          2.09734        2.70008        1.83489
C          2.64521        3.30252        0.53748
C          4.16993        3.21983        0.42381
C          4.72483        3.83286       -0.86518
C          6.25062        3.75261       -0.96765
C          6.81018        4.39641       -2.24022
C          8.33851        4.30497       -2.33248
C          8.88117        5.00457       -3.56482
O         10.31943        4.85727       -3.59133
C         10.90710        5.57181       -4.66141
C         12.38941        5.39132       -4.59718
N         13.24829        6.38298       -4.46996
N         14.47415        5.79068       -4.47232
C         14.37002        4.46878       -4.59640
N         13.05692        4.18143       -4.67707
C         12.44074        2.83913       -4.82373
C         13.34438        1.69733       -4.35396
C         13.84075        1.79584       -2.92252
C         12.99400        2.18241       -1.87116
C         13.46793        2.22974       -0.55788
C         14.79383        1.88930       -0.27399
C         15.64495        1.50195       -1.31170
C         15.17069        1.45943       -2.62615
C         15.68171        6.62428       -4.35083
C         16.96010        5.85533       -4.70145
O         16.91286        5.21157       -5.95798
C         17.05288        6.09556       -7.09094
C         17.03748        5.26662       -8.36372
C         17.09275        6.13779       -9.62391
C         17.05379        5.32331      -10.92154
C         17.08934        6.19865      -12.17530
H          0.21378        2.35451        2.88940
H          0.08021        2.26173        1.12263
H          0.23641        3.83950        1.91831
H          2.40953        1.64427        1.90348
H          2.56397        3.21019        2.69455
H          2.33005        4.35845        0.46526
H          2.18480        2.78996       -0.32565
H          4.48351        2.16312        0.49028
H          4.62665        3.72621        1.29245
H          4.41048        4.88921       -0.93080
H          4.27254        3.32700       -1.73614
H          6.56520        2.69523       -0.92363
H          6.70165        4.24127       -0.08646
H          6.50224        5.45560       -2.27513
H          6.35690        3.91607       -3.12434
H          8.64756        3.24685       -2.35136
H          8.79599        4.75617       -1.43764
H          8.63144        6.08183       -3.54631
H          8.45433        4.57444       -4.49124
H         10.70489        6.65630       -4.60276
H         10.52953        5.21452       -5.64271
H         15.18814        3.76126       -4.63695
H         12.18217        2.70820       -5.88455
H         11.50829        2.88499       -4.24830
H         14.19982        1.58172       -5.03778
H         12.74617        0.78031       -4.48542
H         11.95133        2.44390       -2.06591
H         12.79566        2.52734        0.24775
H         15.15999        1.92099        0.75258
H         16.67829        1.22509       -1.09910
H         15.83832        1.13814       -3.43030
H         15.73433        6.99695       -3.31754
H         15.51846        7.48451       -5.01195
H         17.14959        5.06849       -3.95430
H         17.79790        6.57361       -4.63434
H         18.00007        6.65778       -6.99251
H         16.22529        6.82995       -7.10966
H         16.12005        4.65456       -8.37688
H         17.88592        4.56481       -8.34742
H         18.00860        6.75319       -9.60923
H         16.24750        6.84827       -9.61827
H         16.14272        4.70107      -10.92993
H         17.90280        4.62012      -10.93427
H         16.23624        6.89269      -12.20200
H         17.05186        5.59072      -13.08890
H         18.00851        6.80126      -12.21468
