77

C          0.50070        2.57510       11.12302
C          1.85912        2.11761       10.58841
C          2.43766        3.05871        9.52781
C          3.79349        2.60543        8.97966
C          4.37768        3.55673        7.93172
C          5.71957        3.08784        7.36167
C          6.31876        4.05843        6.34004
C          7.64292        3.56961        5.74210
C          8.26201        4.57273        4.76077
C          9.54034        4.08545        4.07275
N         10.60013        3.83056        5.06522
C         11.91035        4.12399        4.93020
N         12.52179        4.10336        3.73966
C         12.20095        3.26910        2.58994
C         13.54018        3.17596        1.80559
O         14.53755        3.72748        2.30083
N         13.56360        2.51686        0.63126
C         12.39945        1.84366        0.03970
C         11.79272        2.57937       -1.15686
C         14.85098        2.46174       -0.09724
C         15.20800        3.75653       -0.82806
N         12.60171        4.45336        6.03465
C         14.04433        4.51658        6.19054
C         14.29317        4.89428        7.65761
O         13.37465        5.13307        8.42324
O         15.59173        4.93724        7.92844
C         15.97505        5.33204        9.29890
C         16.06652        4.13119       10.22459
C         16.53902        4.54597       11.62554
C         16.65431        3.35849       12.58341
H          0.11092        1.88004       11.87908
H         -0.24350        2.63926       10.31535
H          0.57065        3.56936       11.58876
H          1.76618        1.10472       10.16161
H          2.57468        2.03046       11.42365
H          2.53592        4.07217        9.95544
H          1.72030        3.15128        8.69331
H          3.68980        1.59749        8.54076
H          4.50845        2.49954        9.81460
H          4.50079        4.55896        8.37824
H          3.65550        3.68006        7.10605
H          5.58903        2.09697        6.89250
H          6.43616        2.94044        8.18904
H          6.47424        5.04150        6.81702
H          5.59661        4.22718        5.52306
H          7.48243        2.60551        5.22948
H          8.33605        3.35674        6.57841
H          8.46499        5.52859        5.27107
H          7.53462        4.79638        3.96501
H          9.90548        4.84868        3.37178
H          9.33005        3.16541        3.50298
H         10.27713        3.67352        6.01647
H         13.52479        4.36304        3.66623
H         11.41902        3.71335        1.95724
H         11.86125        2.27129        2.90835
H         11.64110        1.69681        0.81955
H         12.72451        0.83570       -0.26102
H         11.46870        3.59299       -0.88326
H         10.91846        2.02694       -1.52623
H         12.50712        2.66215       -1.98553
H         14.77560        1.62146       -0.80076
H         15.63354        2.22020        0.63512
H         14.45994        4.02128       -1.58594
H         16.17352        3.63176       -1.33607
H         15.30560        4.58871       -0.12068
H         12.11020        4.74118        6.88763
H         14.50729        5.28884        5.55401
H         14.53090        3.55630        5.96134
H         15.24376        6.06849        9.65667
H         16.95026        5.81492        9.16027
H         16.76589        3.39483        9.79727
H         15.08028        3.64621       10.29604
H         15.83804        5.28842       12.04097
H         17.51450        5.05372       11.54792
H         15.68979        2.84284       12.69777
H         16.97744        3.68592       13.58016
H         17.38702        2.62321       12.22032
