72

C          1.00610        0.05672       -1.29141
C          2.53028        0.11481       -1.17008
C          3.02204        1.29605       -0.32808
C          4.54650        1.37765       -0.20672
C          5.02816        2.57313        0.62063
C          6.55243        2.67996        0.72604
C          7.02102        3.90235        1.52117
C          8.54420        4.02362        1.62725
C          9.00068        5.26955        2.39248
C         10.52311        5.40154        2.49996
C         10.96713        6.66810        3.23878
C         12.48969        6.79842        3.35879
C         12.91610        8.08116        4.08282
C         14.43925        8.17446        4.20474
N         14.87231        9.38037        4.93440
N         14.86135        9.35784        6.29703
C         15.24373       10.56054        6.64631
N         15.48867       11.34908        5.55030
C         15.24913       10.57614        4.45558
C         15.35904       10.97277        3.02861
C         14.27559       11.98479        2.60879
O         13.75829       12.76547        3.38499
O         14.05095       11.89128        1.29948
C         13.08975       12.84944        0.71421
C         11.68738       12.27786        0.72562
C         15.98512       12.72536        5.59036
C         17.46809       12.79189        5.19763
O         18.02776       11.93769        4.54081
O         18.00179       13.92518        5.65347
C         19.39615       14.16444        5.29209
H          0.68067       -0.80023       -1.89698
H          0.60996        0.96802       -1.76368
H          0.53199       -0.03517       -0.30286
H          2.97913        0.17548       -2.17594
H          2.90244       -0.82516       -0.72873
H          2.57778        1.23254        0.68106
H          2.64160        2.23591       -0.76621
H          4.98936        1.43247       -1.21685
H          4.92898        0.44371        0.24121
H          4.59587        2.51320        1.63488
H          4.63009        3.50312        0.17749
H          6.98592        2.71842       -0.28879
H          6.95325        1.76301        1.19237
H          6.58692        3.86640        2.53573
H          6.61605        4.81607        1.05144
H          8.98040        4.03916        0.61301
H          8.95031        3.12228        2.11852
H          8.56397        5.25607        3.40633
H          8.59151        6.16832        1.89830
H         10.96298        5.39615        1.48735
H         10.93232        4.51498        3.01451
H         10.52127        6.67880        4.24800
H         10.56466        7.55389        2.71721
H         12.94049        6.77379        2.35158
H         12.89069        5.92323        3.89742
H         12.47737        8.10883        5.09222
H         12.53518        8.96278        3.54111
H         14.92665        8.18753        3.22101
H         14.84601        7.32826        4.77314
H         15.35338       10.90327        7.67048
H         15.32154       10.08993        2.38127
H         16.34362       11.44151        2.86787
H         13.46900       12.99558       -0.30352
H         13.16046       13.78737        1.27809
H         11.64507       11.31821        0.19498
H         11.01343       12.97745        0.21242
H         11.31678       12.14427        1.74977
H         15.83024       13.11663        6.60211
H         15.38388       13.33305        4.89885
H         19.64904       15.11895        5.75999
H         19.49232       14.22221        4.20180
H         20.02349       13.35423        5.67970
