83

C          2.05114       -1.49610        0.13183
C          3.18001       -0.67360       -0.44878
O          3.91063       -0.06704        0.67467
C          4.96744        0.73270        0.33721
O          5.30850        0.95983       -0.79755
C          5.69430        1.26318        1.57868
C          4.71991        1.71847        2.68953
N          4.00131        0.59880        3.32756
C          4.46313        0.37691        4.56313
N          4.07182       -0.69610        5.29183
C          4.18543       -0.90829        6.71921
C          5.28686       -1.96487        7.14140
C          6.81661       -1.60398        6.97350
C          7.51845       -0.44298        7.81051
C          7.32718       -0.44694        9.37201
C          8.29374        0.45709       10.24906
C          8.37004        2.02236       10.03425
C          7.05736        2.87829       10.18912
F          6.41096        2.58089       11.32427
F          7.39268        4.17646       10.19704
F          6.22419        2.66477        9.14394
F          9.24901        2.47116       10.95915
F          8.87885        2.26512        8.79395
F          7.91137        0.23369       11.53023
F          9.55565       -0.00819       10.08509
F          6.04643       -0.08517        9.64845
F          7.52646       -1.71785        9.80045
F          8.83012       -0.53938        7.51263
F          7.06363        0.75461        7.31471
F          7.49634       -2.74304        7.20358
F          6.99477       -1.25093        5.65832
F          5.05408       -2.32975        8.41686
F          5.07141       -3.04370        6.33259
F          4.38528        0.27093        7.35066
F          3.00208       -1.42808        7.12305
N          5.31568        1.32894        4.93564
C          5.41211        2.39493        3.91551
C          4.78782        3.71399        4.39710
C          3.36399        3.56825        4.95114
C          2.91320        4.82266        5.69021
C          1.53053        4.72602        6.43991
C          1.26380        3.55030        7.46915
C          2.23081        3.26552        8.68794
C          2.50932        4.33929        9.81569
C          1.34767        4.90355       10.72976
C          0.46601        3.95268       11.63649
C          1.17972        3.04327       12.70565
F          2.03290        3.75813       13.45670
F          0.23905        2.50779       13.49940
F          1.85594        2.04031       12.11107
F         -0.36737        4.78120       12.31306
F         -0.27962        3.14833       10.83538
F          1.95194        5.80208       11.54716
F          0.48081        5.57126        9.92547
F          3.44175        3.77256       10.62926
F          3.07122        5.42163        9.22325
F          1.76148        2.14002        9.27857
F          3.45834        2.96636        8.15645
F          0.01294        3.72447        7.94380
F          1.27568        2.37918        6.74671
F          1.30493        5.89964        7.07076
F          0.57386        4.56090        5.47737
F          3.86051        5.20969        6.60202
F          2.77706        5.85890        4.80148
C          6.74952        0.23376        2.02872
H          1.48524       -1.96462       -0.68440
H          1.34981       -0.87354        0.70474
H          2.42851       -2.30265        0.77596
H          2.82174        0.13761       -1.09633
H          3.89217       -1.28029       -1.02404
H          6.20955        2.17140        1.22943
H          3.97962        2.40414        2.25203
H          3.55126       -0.09534        2.73073
H          3.46758       -1.37227        4.83198
H          5.72704        1.39209        5.86151
H          6.47432        2.57384        3.69451
H          4.81984        4.42903        3.56151
H          5.43995        4.12923        5.17959
H          3.32264        2.73450        5.66168
H          2.62463        3.36467        4.16366
H          6.29082       -0.70828        2.35950
H          7.37207        0.62081        2.84648
H          7.41814        0.00138        1.19131
