63

C          3.23729        0.04449       -0.53090
C          4.11404       -0.15809        0.70685
C          4.60724        1.15887        1.31902
C          5.45231        0.95093        2.58305
C          5.99357        2.25682        3.13213
O          6.69585        1.96592        4.38003
C          7.37122        3.02441        4.94371
N          8.76222        3.13999        4.39256
N          8.99759        3.82387        3.24021
C         10.26740        3.60214        2.95283
N         10.83411        2.78529        3.92570
C          9.85589        2.50745        4.80649
C         12.21402        2.25739        3.97144
C         12.36452        0.95068        3.18527
C         13.79432        0.41138        3.26648
C         10.98504        4.14075        1.76294
C         10.11820        5.07360        0.90323
C         10.86242        5.52535       -0.35712
P          9.99496        6.76569       -1.37452
O         10.72084        7.15528       -2.60409
O          8.56561        6.05645       -1.53038
C          7.55080        6.67866       -2.38743
C          7.51936        6.01521       -3.75039
O          9.66520        7.99140       -0.37388
C         10.38291        9.25785       -0.49386
C         11.63173        9.27554        0.37009
H          2.91223       -0.91681       -0.95054
H          3.77852        0.58471       -1.32199
H          2.33371        0.62410       -0.29167
H          4.98535       -0.78230        0.44462
H          3.55410       -0.72501        1.46897
H          3.73923        1.79703        1.55849
H          5.19312        1.71282        0.56418
H          6.29735        0.27774        2.36469
H          4.84942        0.45807        3.36208
H          5.18199        2.97113        3.35605
H          6.68750        2.73150        2.41866
H          7.48663        2.83933        6.02045
H          6.90883        4.00825        4.76547
H          9.94456        1.88203        5.68884
H         12.47052        2.11815        5.03051
H         12.87340        3.04272        3.57779
H         12.08077        1.12064        2.13529
H         11.65436        0.21042        3.58670
H         14.52029        1.12203        2.84695
H         13.88170       -0.52392        2.70080
H         14.08845        0.20036        4.30442
H         11.34411        3.28904        1.15930
H         11.89281        4.66839        2.10386
H          9.82046        5.94813        1.49964
H          9.18896        4.56042        0.62039
H         11.07901        4.67695       -1.02499
H         11.83009        5.99015       -0.10928
H          7.75534        7.75668       -2.46748
H          6.60489        6.55047       -1.84436
H          8.47338        6.15372       -4.27386
H          6.72121        6.46237       -4.35972
H          7.31714        4.93989       -3.65866
H          9.66006       10.01676       -0.16750
H         10.62464        9.42486       -1.55225
H         11.39204        9.03838        1.41582
H         12.08684       10.27543        0.34381
H         12.38205        8.56136        0.00257
