31

C          2.73729       -0.54985       -1.40572
C          2.42570        0.05674       -0.03162
C          0.90873        0.12489        0.25040
C          0.14506        1.07503       -0.67440
C          3.09099       -0.73877        1.11766
P          4.90700       -0.78816        1.09868
C          5.62208        0.84936        1.07509
C          6.45642        1.24861        0.10676
C          5.56970       -1.81230        2.46602
C          7.05961       -1.99118        2.34180
C          7.63437       -3.13418        1.95839
H          2.23068        0.01118       -2.19997
H          2.39437       -1.59423       -1.46614
H          3.80973       -0.52857       -1.64954
H          2.81817        1.08848       -0.00257
H          0.75832        0.44407        1.29465
H          0.48812       -0.89262        0.17513
H          0.55002        2.09594       -0.62074
H         -0.91146        1.12260       -0.38177
H          0.17599        0.75212       -1.72328
H          2.75819       -1.79131        1.11391
H          2.81162       -0.31992        2.09922
H          5.35222       -1.41017       -0.08866
H          5.34279        1.51037        1.90046
H          6.74382        0.60133       -0.72450
H          6.88432        2.25228        0.11435
H          5.03590       -2.77440        2.41203
H          5.28141       -1.31871        3.40845
H          7.67488       -1.12295        2.59042
H          7.05113       -4.02561        1.71635
H          8.71823       -3.22427        1.89364
