91

C          2.65952        0.40690        1.70121
C          4.13083        0.17824        1.34414
C          4.33880       -0.31014       -0.09393
C          5.80783       -0.55272       -0.45661
C          6.01297       -1.04018       -1.89473
C          7.47871       -1.31147       -2.25013
C          7.68082       -1.78873       -3.69235
C          9.14055       -2.10348       -4.03477
C          9.34070       -2.56190       -5.48400
C         10.80083       -2.90447       -5.80804
C         10.97825       -3.35242       -7.24737
O         12.37319       -3.68569       -7.45908
C         12.65466       -4.04704       -8.77739
N         14.12382       -4.02353       -8.86242
C         14.91799       -4.97567       -9.37264
N         16.20747       -5.20975       -9.03668
C         17.00180       -4.50486       -8.00980
C         18.50130       -4.75037       -8.17424
C         19.28330       -3.97005       -7.11056
S         21.05047       -4.28169       -7.40274
C         21.79150       -3.36860       -6.04156
S         20.91663       -2.50476       -4.93364
N         23.15389       -3.50081       -6.04179
C         23.86573       -4.12959       -7.13026
C         24.47575       -5.37302       -6.92859
C         25.19004       -5.96548       -7.97040
C         25.29898       -5.31977       -9.20584
C         24.69750       -4.07300       -9.39878
C         23.98449       -3.47116       -8.36112
C         23.96497       -3.03787       -4.93883
C         24.91819       -2.04184       -5.16464
C         25.75053       -1.63529       -4.11954
C         25.63114       -2.22126       -2.85764
C         24.67763       -3.22113       -2.64131
C         23.84439       -3.63492       -3.67991
N         16.73079       -6.25070       -9.76202
C         15.76295       -6.64464      -10.53454
N         14.61384       -5.88569      -10.35160
C         13.43207       -5.95155      -11.17366
C         12.67745       -7.12272      -11.20436
C         11.55700       -7.14074      -12.04178
N         11.17774       -6.10073      -12.79649
C         11.92775       -4.99134      -12.75491
C         13.07524       -4.86069      -11.96650
H          2.54526        0.75048        2.73834
H          2.07372       -0.51804        1.59153
H          2.20257        1.16499        1.04757
H          4.56915       -0.55525        2.04227
H          4.69727        1.11271        1.49544
H          3.90610        0.42666       -0.79380
H          3.76642       -1.24205       -0.24784
H          6.23748       -1.29148        0.24302
H          6.38171        0.37770       -0.30088
H          5.59956       -0.29295       -2.59487
H          5.42392       -1.96034       -2.05517
H          7.88711       -2.06693       -1.55588
H          8.07247       -0.39590       -2.08190
H          7.29928       -1.02012       -4.38723
H          7.06391       -2.68742       -3.86866
H          9.51538       -2.88489       -3.35098
H          9.76313       -1.21188       -3.84549
H          8.98469       -1.77193       -6.16772
H          8.70394       -3.44236       -5.67795
H         11.15579       -3.70576       -5.14051
H         11.44385       -2.02873       -5.62448
H         10.69010       -2.55316       -7.95563
H         10.35761       -4.24127       -7.46425
H         12.22136       -3.32551       -9.49716
H         12.29148       -5.05989       -9.03028
H         14.53806       -3.40576       -8.16671
H         16.64951       -4.83493       -7.01953
H         16.78506       -3.42937       -8.11157
H         18.81235       -4.44257       -9.18390
H         18.70977       -5.82552       -8.09099
H         19.03130       -4.29076       -6.08993
H         19.10185       -2.88725       -7.17008
H         24.38967       -5.86334       -5.95862
H         25.66581       -6.93431       -7.81556
H         25.86154       -5.78468      -10.01603
H         24.79382       -3.56003      -10.35624
H         23.51858       -2.49443       -8.49402
H         25.00824       -1.59021       -6.15270
H         26.49278       -0.85604       -4.29438
H         26.28260       -1.90247       -2.04359
H         24.58339       -3.68433       -1.65879
H         23.09765       -4.41229       -3.51994
H         15.82505       -7.45147      -11.25712
H         12.93848       -7.98439      -10.58962
H         10.93122       -8.03464      -12.09871
H         11.60421       -4.16314      -13.39025
H         13.66672       -3.94490      -11.97777
