65

C          8.79024       -1.54527       -1.47395
C          7.55281       -1.77001       -2.34578
C          7.25514       -0.57544       -3.25764
C          6.04752       -0.75946       -4.18173
N          4.75612       -0.88604       -3.46911
C          4.12688       -2.08049       -3.47415
O          4.57447       -3.12329       -3.95866
C          2.71980       -2.14153       -2.80054
N          1.92243       -3.16602       -3.47337
N          1.08915       -2.86484       -4.44964
N          0.70354       -3.97956       -5.02763
C          1.32621       -5.01515       -4.41730
N          2.10551       -4.51353       -3.43060
C          2.90787       -5.19379       -2.40833
C          2.21286       -5.21898       -1.03395
O          1.00813       -6.01985       -0.98780
C          1.09857       -7.37783       -1.17014
O          2.11101       -7.94333       -1.52655
C         -0.22522       -8.04999       -0.88375
S         -1.35233       -7.99404       -2.33052
C          3.23343       -5.58638        0.05368
O          2.66451       -5.50275        1.37005
C          2.45071       -4.24185        1.85090
O          2.70592       -3.23167        1.22044
C          1.84158       -4.28721        3.23011
S          0.02501       -4.50790        3.11525
C          1.16977       -6.44136       -4.79147
C          1.05295       -6.65688       -6.32217
C          2.35547       -6.28344       -7.03885
C          0.65489       -8.11078       -6.59621
C          4.18221        0.34045       -2.91152
H          8.98335       -2.40815       -0.82311
H          8.67057       -0.66202       -0.82959
H          9.68683       -1.38671       -2.09005
H          6.68037       -1.96711       -1.69988
H          7.68672       -2.67230       -2.96392
H          8.12323       -0.38429       -3.90940
H          7.13708        0.33822       -2.65014
H          6.16228       -1.66528       -4.78907
H          5.95270        0.10052       -4.86299
H          2.12858       -1.22614       -2.91052
H          2.80865       -2.37766       -1.73011
H          3.87045       -4.66809       -2.35947
H          3.09020       -6.20933       -2.77445
H          1.83227       -4.21592       -0.80017
H         -0.72267       -7.60865       -0.01333
H         -0.03081       -9.11282       -0.70184
H         -1.83484       -6.75059       -2.09932
H          4.08539       -4.89439       -0.02425
H          3.57978       -6.61973       -0.04849
H          2.08120       -3.36686        3.77174
H          2.20615       -5.15711        3.78900
H         -0.24380       -3.24655        2.70229
H          0.26152       -6.82370       -4.28710
H          2.00724       -7.03134       -4.38772
H          0.24828       -5.99880       -6.68622
H          3.18740       -6.92112       -6.70178
H          2.63982       -5.23437       -6.87272
H          2.24971       -6.42435       -8.12247
H          1.42246       -8.80983       -6.23035
H          0.54311       -8.27735       -7.67556
H         -0.29776       -8.36988       -6.11394
H          5.00146        1.02596       -2.66833
H          3.63955        0.15074       -1.97808
H          3.51815        0.84258       -3.63268
