77

C          9.71198       -3.23169        2.35954
C          9.08105       -2.09240        1.55697
C          9.49648       -0.70223        2.04870
C          8.87397        0.44071        1.24187
C          9.33436        1.83260        1.68501
C          8.71767        2.96786        0.86212
C          9.26209        4.35248        1.22397
C          8.65184        5.48197        0.38764
C          9.25841        6.85372        0.66922
O         10.67014        6.93782        0.36748
C         10.95364        7.08744       -1.00771
C         12.48438        7.09884       -1.11394
C         13.27842        8.32120       -0.61828
C         14.71125        7.92592       -1.02019
C         14.58347        7.15045       -2.33366
N         13.09086        6.81682       -2.52030
C         12.43371        7.31487       -3.88048
C         12.19966        8.85660       -3.94221
C         13.45141        9.75334       -3.96779
C         11.31076        9.23585       -5.14653
C         13.39250        6.80974       -4.98048
O         13.61563        5.41807       -4.74077
C         11.10982        6.54223       -4.04044
C         13.09292        8.65134        0.86659
C         13.64268       10.03640        1.32935
N         13.09478       11.19548        0.63577
N         13.18950       10.18943        2.71410
N         15.09347       10.09755        1.06993
H          9.40018       -4.21366        1.97860
H          9.42330       -3.17934        3.41974
H         10.81054       -3.19024        2.31415
H          7.98208       -2.17704        1.59610
H          9.35454       -2.19456        0.49302
H         10.59737       -0.61878        2.01100
H          9.22163       -0.59319        3.11241
H          7.77393        0.37955        1.31062
H          9.11762        0.30397        0.17315
H         10.43543        1.88872        1.61448
H          9.09250        1.97987        2.75176
H          7.62116        2.95773        0.98663
H          8.90033        2.77695       -0.21083
H         10.35798        4.35637        1.09997
H          9.07878        4.55665        2.29296
H          7.56966        5.55683        0.58692
H          8.73337        5.24247       -0.68747
H          9.19691        7.08719        1.74197
H          8.72123        7.64741        0.11831
H         10.50495        8.02182       -1.40200
H         10.54035        6.24207       -1.58185
H         12.82116        6.22495       -0.52853
H         12.95201        9.19772       -1.20468
H         15.13569        7.28049       -0.23734
H         15.36959        8.79620       -1.10743
H         15.12592        6.19861       -2.33770
H         14.91494        7.73090       -3.19410
H         13.05220        5.80090       -2.67026
H         11.62163        9.10534       -3.03684
H         14.06934        9.57635       -4.85947
H         14.08962        9.66341       -3.08183
H         13.12874       10.80184       -4.01670
H         11.79881        9.00763       -6.10478
H         11.13377       10.31855       -5.12772
H         10.33142        8.74536       -5.13228
H         14.34313        7.36366       -4.99885
H         12.89239        6.97721       -5.94758
H         14.15109        5.04559       -5.45783
H         10.28392        7.00843       -3.49537
H         11.20552        5.49426       -3.72869
H         10.83344        6.52462       -5.10070
H         13.55517        7.85374        1.47584
H         12.02676        8.64478        1.11691
H         12.08264       11.24321        0.73929
H         13.35677       11.21667       -0.34769
H         13.54943        9.44323        3.30952
H         13.51946       11.08241        3.08433
H         15.42922       11.02272        1.34802
H         15.58173        9.41577        1.65331
