63

C          2.92380       -7.54677        4.37500
C          4.20806       -7.00420        3.74492
C          4.40098       -7.44631        2.29057
C          5.66691       -6.87612        1.64572
C          5.89584       -7.35614        0.20827
C          7.15747       -6.75116       -0.41671
C          7.41793       -7.24643       -1.82856
O          8.65349       -6.64821       -2.28574
C          9.03766       -7.07189       -3.56705
N         10.42318       -6.65909       -3.76250
N         11.41611       -7.59772       -3.55558
C         12.52316       -6.91547       -3.54508
N         12.30593       -5.56316       -3.72913
C         10.94940       -5.40824       -3.84135
N         10.35243       -4.22658       -4.01868
C          8.91632       -3.94163       -4.10346
C          8.77898       -2.44081       -4.41599
C          7.32921       -1.96476       -4.29003
N          6.46087       -2.74351       -5.17726
O          9.67306       -1.68212       -3.58951
C         13.28738       -4.45919       -3.75067
C         14.72980       -4.89700       -4.04990
C         14.91151       -5.52681       -5.45008
C         14.59689       -4.61865       -6.64333
C         15.64835       -3.68576       -3.82396
H          2.82625       -7.23040        5.42226
H          2.90429       -8.64644        4.35653
H          2.03396       -7.18995        3.83553
H          5.07848       -7.33146        4.33876
H          4.20573       -5.90195        3.79219
H          3.52025       -7.14410        1.69681
H          4.43165       -8.54905        2.24694
H          6.54338       -7.14837        2.25942
H          5.61780       -5.77310        1.65947
H          5.01609       -7.10432       -0.40851
H          5.97141       -8.45678        0.20091
H          8.03475       -6.99428        0.20418
H          7.07533       -5.65196       -0.43265
H          6.59372       -6.96568       -2.51094
H          7.52118       -8.34695       -1.85156
H          8.40469       -6.63783       -4.36099
H          9.04496       -8.16961       -3.66955
H         13.50602       -7.35256       -3.41375
H         10.88973       -3.39267       -3.76556
H          8.41676       -4.19234       -3.15240
H          8.44584       -4.51652       -4.90952
H          9.13740       -2.26495       -5.44413
H          7.31473       -0.87362       -4.46387
H          6.99749       -2.13214       -3.25064
H          6.50058       -2.38059       -6.13061
H          5.48754       -2.67056       -4.88374
H          9.24580       -1.51818       -2.73102
H         13.24671       -3.95214       -2.77349
H         12.95081       -3.74432       -4.51801
H         15.01461       -5.65629       -3.30103
H         14.30536       -6.44377       -5.52983
H         15.95782       -5.86216       -5.51769
H         13.54891       -4.28272       -6.65526
H         14.76642       -5.16030       -7.58264
H         15.23558       -3.72563       -6.66371
H         15.38671       -2.84412       -4.48036
H         16.69125       -3.95783       -4.03105
H         15.59579       -3.33141       -2.78547
