67

C          0.63020        0.23315        0.03391
O          2.04784        0.16607        0.07990
C          2.61402        1.17320        0.89869
C          4.12316        0.97947        0.87164
O          4.70788        2.03716        1.62699
C          6.12109        1.99649        1.62455
C          6.60071        3.20215        2.42041
O          8.02398        3.25287        2.30865
C          8.59301        4.37438        2.94545
C         10.09024        4.33467        2.64366
C         10.87876        5.47176        3.29457
O         12.29227        5.31460        3.21525
C         12.78729        5.29042        1.89057
C         14.30402        5.46451        1.97737
C         15.12304        5.27227        0.68270
C         15.08923        6.43696       -0.32822
O         13.81404        6.60813       -0.99753
O         16.48694        5.00940        1.00813
N         12.13962        6.36445        1.12091
C         11.16788        7.14310        1.60325
N         10.85363        8.28000        0.93792
N         10.53781        6.80716        2.74103
C          9.62096        7.72780        3.42711
C          9.72313        7.69519        4.95660
O          9.04382        8.85477        5.37605
C          8.93425        8.97206        6.79948
C          8.21812       10.28422        7.08717
O          8.06741       10.37546        8.48899
C          7.43439       11.58459        8.89060
H          0.29242       -0.57598       -0.62402
H          0.28346        1.20056       -0.37432
H          0.18508        0.09419        1.03644
H          2.23905        1.10075        1.93871
H          2.36136        2.18420        0.52143
H          4.48292        1.00326       -0.17461
H          4.39140       -0.00415        1.30073
H          6.52100        2.05308        0.59273
H          6.49901        1.06028        2.07964
H          6.29460        3.11583        3.47923
H          6.14697        4.12234        2.00591
H          8.41088        4.34773        4.04061
H          8.13088        5.30668        2.55890
H         10.21975        4.33689        1.55113
H         10.50074        3.38716        3.02311
H         10.67289        5.50931        4.37062
H         12.54582        4.32794        1.39900
H         14.65166        4.69623        2.68304
H         14.51682        6.44783        2.42906
H         14.78064        4.35693        0.16845
H         15.88096        6.26763       -1.07058
H         15.29500        7.39346        0.17770
H         13.79416        6.03749       -1.78171
H         16.84416        5.74992        1.52709
H         12.56793        6.55799        0.19506
H         11.37925        8.52204        0.10671
H          9.93910        8.70059        1.03838
H          8.57898        7.53888        3.12368
H          9.88117        8.75383        3.13401
H         10.78634        7.70798        5.27390
H          9.24958        6.78793        5.38174
H          9.93612        8.97228        7.26584
H          8.35868        8.12476        7.21435
H          7.23579       10.29440        6.57414
H          8.81207       11.13160        6.69028
H          7.35747       11.55615        9.98326
H          6.42160       11.67349        8.45733
H          8.02765       12.46793        8.59132
