96

C          0.77531        2.32467       12.92009
C          2.23722        1.95642       13.18645
C          2.85987        1.08765       12.08691
C          4.32500        0.72546       12.35123
C          4.96268       -0.14162       11.25995
C          6.42805       -0.49034       11.54377
C          7.08634       -1.35658       10.46447
C          8.54895       -1.70175       10.76900
C          9.21614       -2.56571        9.69334
C         10.67424       -2.92560       10.00461
C         11.33184       -3.77487        8.91125
C         12.78858       -4.15852        9.20177
C         13.41758       -4.97533        8.06767
C         14.87270       -5.39542        8.31328
C         15.43964       -6.19781        7.13485
C         16.91496       -6.62603        7.25651
P         17.29820       -7.66529        8.69519
C         16.08662       -9.01512        8.91337
C         16.32917       -9.92776       10.12961
C         16.05997       -9.22945       11.45523
Br        16.66335      -10.27450       12.98241
Br        15.15136      -11.48908        9.90936
C         18.99190       -8.35433        8.56668
O         19.83776       -7.25820        8.37312
C         21.22058       -7.65675        8.14427
C         22.06643       -6.41677        7.93483
C         23.50338       -6.78311        7.53653
C         24.42217       -5.56718        7.37565
C         25.82796       -5.94668        6.89961
C         26.78095       -4.75607        6.75784
C         28.17734       -5.15771        6.27187
C         29.15163       -3.98361        6.13946
C         30.54819       -4.40037        5.66442
C         31.52291       -3.22797        5.53298
H          0.36213        2.94519       13.72732
H          0.14524        1.42640       12.83696
H          0.66955        2.88853       11.98117
H          2.31384        1.42748       14.15174
H          2.83401        2.87738       13.30067
H          2.78116        1.61406       11.11907
H          2.26725        0.16234       11.97452
H          4.40006        0.20132       13.32054
H          4.91281        1.65339       12.46633
H          4.89122        0.38018       10.28928
H          4.37999       -1.07268       11.14477
H          6.49462       -1.00966       12.51623
H          7.00611        0.44316       11.66250
H          7.02829       -0.83655        9.49198
H          6.50893       -2.28990       10.34146
H          8.60406       -2.22243       11.74138
H          9.12447       -0.76775       10.89511
H          9.17113       -2.03916        8.72375
H          8.63377       -3.49421        9.55826
H         10.72001       -3.46469       10.96732
H         11.25726       -1.99912       10.14879
H         11.28804       -3.22767        7.95333
H         10.73931       -4.69419        8.75900
H         12.83630       -4.73278       10.14419
H         13.38390       -3.24469        9.37161
H         13.37078       -4.39178        7.13224
H         12.80827       -5.87860        7.88832
H         14.91746       -5.98680        9.24833
H         15.49737       -4.50345        8.49113
H         15.37059       -5.59214        6.21817
H         14.81324       -7.08451        6.94579
H         17.59664       -5.76471        7.34017
H         17.23969       -7.20514        6.37706
H         17.29682       -6.85051        9.84892
H         16.12769       -9.60223        7.98316
H         15.08731       -8.55629        8.95879
H         17.33896      -10.35628       10.11540
H         14.99157       -9.03026       11.59889
H         16.61520       -8.28362       11.52274
H         18.99458       -9.07303        7.71926
H         19.21077       -8.92578        9.49253
H         21.24817       -8.31421        7.25595
H         21.56785       -8.23994        9.01621
H         22.06744       -5.81588        8.85797
H         21.60598       -5.79758        7.14839
H         23.48340       -7.35051        6.59003
H         23.93490       -7.46425        8.29028
H         24.48914       -5.02866        8.33673
H         23.97086       -4.85776        6.66020
H         25.75254       -6.46996        5.93007
H         26.26442       -6.67817        7.60240
H         26.86589       -4.23740        7.72889
H         26.34704       -4.01936        6.05899
H         28.08951       -5.67002        5.29743
H         28.60134       -5.90472        6.96605
H         29.23677       -3.46676        7.11181
H         28.73519       -3.23850        5.43849
H         30.46094       -4.91860        4.69432
H         30.96028       -5.14505        6.36658
H         31.16069       -2.48609        4.80566
H         32.51369       -3.56385        5.19775
H         31.65634       -2.70903        6.49396
