64

C          3.04670        1.38872       -5.90547
C          2.80708        1.35691       -4.40986
O          3.31702        0.09564       -3.82160
C          4.58790        0.06821       -3.46649
O          5.40188        0.97751       -3.53548
C          4.99959       -1.30842       -2.93874
N          6.44967       -1.20066       -2.56832
C          6.80302       -1.41541       -1.08899
C          8.31351       -1.09713       -0.94878
N          9.20291       -1.76470       -1.88137
C          8.79908       -1.59059       -3.26170
C          7.33627       -1.98914       -3.53550
C          7.08484       -3.50042       -3.44347
C          7.23625       -4.19533       -4.79567
C          7.27828       -5.70891       -4.73029
Br         8.94910       -6.28026       -3.85271
Br         5.67629       -3.71908       -5.95142
C          5.96483       -0.49262       -0.19994
C          6.18034       -0.75803        1.31206
C          6.14514        0.52563        2.15787
P          7.55203        1.63221        1.83316
O          7.75598        2.05029        0.41620
O          7.23339        2.80922        2.86626
C          7.84270        4.13377        2.75515
C          6.84608        5.16308        3.24447
O          8.77908        0.77109        2.42914
C         10.12982        0.87867        1.88708
C         10.96770        1.88162        2.65771
H          2.58214        2.29419       -6.31958
H          2.59335        0.52000       -6.39947
H          4.11743        1.42405       -6.14316
H          1.74111        1.33119       -4.15889
H          3.29301        2.19048       -3.88857
H          4.87072       -2.05607       -3.73335
H          4.38832       -1.60699       -2.08156
H          6.63497       -0.18359       -2.77135
H          6.60037       -2.47881       -0.88165
H          8.62756       -1.33645        0.07391
H          8.43296       -0.00380       -1.05520
H          9.37568       -2.73946       -1.63916
H          9.45709       -2.17544       -3.91924
H          8.93765       -0.53055       -3.53788
H          7.03122       -1.62232       -4.52831
H          6.08834       -3.73629       -3.04185
H          7.80979       -3.95809       -2.75127
H          8.09787       -3.81689       -5.36012
H          7.30077       -6.15886       -5.72586
H          6.45676       -6.13203       -4.14235
H          4.89138       -0.59148       -0.41361
H          6.24999        0.54566       -0.43277
H          7.13815       -1.26590        1.49378
H          5.40612       -1.44827        1.67588
H          6.15564        0.28364        3.23005
H          5.23182        1.10944        1.96882
H          8.12655        4.30553        1.70666
H          8.75070        4.12923        3.37696
H          5.95042        5.17744        2.60964
H          7.30361        6.16162        3.21541
H          6.54101        4.95640        4.27846
H         10.06130        1.14315        0.82193
H         10.54549       -0.13452        1.97648
H         10.60051        2.90672        2.51681
H         12.00552        1.84776        2.29729
H         10.96980        1.65167        3.73118
