63

C         -0.18502        0.42610       -0.95734
C          1.17481        0.30525       -0.26434
C          2.05077        1.55922       -0.33759
C          3.44470        1.40737        0.29135
C          3.25789        1.79419        1.76097
C          2.30829        3.00962        1.74751
N          1.44303        2.72294        0.46742
C          1.37115        3.11879        2.95902
C          0.49484        1.88875        3.25258
C         -0.82494        2.28193        3.94352
S         -2.23597        1.24821        3.46824
C         -2.60614        1.84827        1.86104
S         -1.88482        3.16002        1.12966
N         -3.61804        1.12918        1.23510
C         -4.24508       -0.05322        1.67867
N         -5.13536       -0.47364        0.82991
C         -5.12605        0.44612       -0.21920
C         -4.20784        1.42901       -0.00222
C          3.02077        4.35828        1.46792
C          3.73113        5.01439        2.66643
O          4.64620        4.04573        3.17271
C          4.96534        4.11427        4.57952
C          5.03513        2.69677        5.08431
C          3.94115        2.11620        5.74199
C          3.96652        0.77065        6.11721
C          5.09078       -0.01046        5.83340
C          6.19063        0.56166        5.18661
C          6.16353        1.90819        4.81764
C          4.42871        6.31348        2.26488
H         -0.73881       -0.51821       -0.88147
H         -0.06702        0.65564       -2.02596
H         -0.82341        1.20676       -0.51781
H          1.75765       -0.49587       -0.74315
H          1.05385       -0.00725        0.78578
H          2.10210        1.90341       -1.38038
H          4.16417        2.07561       -0.20323
H          3.82060        0.38477        0.16881
H          4.19305        2.05910        2.26195
H          2.80794        0.96474        2.32365
H          1.42286        3.57308       -0.10601
H          0.44847        2.54949        0.72933
H          0.72462        4.00013        2.81811
H          2.00282        3.33265        3.83057
H          1.03973        1.16474        3.87366
H          0.24434        1.35238        2.32602
H         -1.10805        3.31911        3.71599
H         -0.77768        2.16892        5.03559
H         -3.97452       -0.53533        2.61365
H         -5.79423        0.33302       -1.06731
H         -3.91407        2.30756       -0.56093
H          2.27346        5.08460        1.10388
H          3.75940        4.22348        0.66042
H          2.98184        5.24406        3.44873
H          4.18211        4.68074        5.11262
H          5.92337        4.64339        4.71479
H          3.06939        2.73065        5.98285
H          3.11809        0.33493        6.64715
H          5.11774       -1.05899        6.13199
H          7.07628       -0.04078        4.98084
H          7.02549        2.35434        4.31736
H          5.19429        6.12157        1.50038
H          4.92054        6.76728        3.13490
H          3.71202        7.04739        1.86889
