72

C          0.67920        0.10845       -0.73498
C          2.20376        0.18161       -0.62439
C          2.68718        1.17689        0.43563
C          4.21249        1.25771        0.54632
C          4.70824        2.24829        1.60492
C          6.23571        2.30996        1.70216
C          6.76028        3.27933        2.76664
C          8.28995        3.29896        2.84966
C          8.85418        4.23532        3.92351
C         10.38461        4.19994        3.99060
C         10.99049        5.09337        5.07880
C         12.51867        4.99538        5.13050
C         13.16992        5.84259        6.23214
C         14.69487        5.66620        6.26819
C         15.43326        6.53288        7.28450
N         14.95445        6.32903        8.71254
C         15.24467        4.91463        9.26643
C         16.70325        4.61655        9.46888
C         17.30552        4.84289       10.71828
C         18.65707        4.55566       10.91479
C         19.42046        4.03288        9.86682
C         18.82648        3.78179        8.62647
C         17.47426        4.06730        8.42957
C         15.44138        7.41171        9.65392
C         14.79087        8.77242        9.40085
C         15.20981        9.75466       10.49246
Br        14.39101       11.50212       10.18991
H          0.36396       -0.61324       -1.50109
H          0.25260        1.08649       -1.00314
H          0.22540       -0.19901        0.21898
H          2.63216        0.45864       -1.60244
H          2.60565       -0.81884       -0.39074
H          2.26283        0.89810        1.41640
H          2.28305        2.17841        0.20496
H          4.63368        1.53512       -0.43606
H          4.61346        0.25412        0.77370
H          4.28955        1.97187        2.58856
H          4.31347        3.25428        1.37875
H          6.65058        2.59236        0.71858
H          6.62469        1.29821        1.91364
H          6.34322        3.00273        3.75088
H          6.38903        4.29695        2.55361
H          8.70270        3.58489        1.86634
H          8.65219        2.27350        3.04150
H          8.43748        3.95729        4.90747
H          8.51617        5.26797        3.72914
H         10.79801        4.49282        3.00989
H         10.71250        3.15886        4.15770
H         10.57016        4.80994        6.05995
H         10.69159        6.14178        4.90746
H         12.93936        5.29732        4.15637
H         12.80869        3.93981        5.27251
H         12.71520        5.54967        7.19938
H         12.92008        6.90692        6.08056
H         15.11280        5.93919        5.28631
H         14.94631        4.60273        6.40422
H         15.27409        7.59533        7.06332
H         16.51337        6.33753        7.29488
H         13.92613        6.39939        8.67715
H         14.77905        4.22059        8.55674
H         14.69026        4.86609       10.21303
H         16.70999        5.22235       11.55179
H         19.11175        4.72767       11.89072
H         20.47505        3.80393       10.02250
H         19.41325        3.35017        7.81532
H         17.01171        3.83641        7.46755
H         16.53419        7.44598        9.55753
H         15.20400        7.06235       10.66834
H         13.69263        8.67760        9.40463
H         15.08111        9.18417        8.42454
H         16.29247        9.92391       10.50264
H         14.88161        9.43349       11.48757
