63

C          7.24292        0.27116        6.21355
C          6.67267        1.29357        5.22863
C          7.10224        1.03478        3.78080
C          6.54331        2.05584        2.78529
C          6.94588        1.76489        1.33582
C          6.35602        2.75634        0.31394
C          6.86181        4.18019        0.41521
C          8.21466        4.39150        0.55990
N          8.72738        5.65973        0.62485
C          7.97483        6.76453        0.55210
C          6.58852        6.66020        0.39956
C          6.00127        5.33453        0.32937
C          4.60309        5.23541        0.18504
C          3.80192        6.37154        0.12152
C          2.31421        6.23148       -0.04071
C          1.94010        5.90704       -1.50326
O          0.53234        5.63751       -1.62289
C          0.15208        4.35702       -1.29707
O          0.94397        3.51754       -0.91447
C         -1.33236        4.15455       -1.47367
C         -1.98722        3.54736       -0.21986
C         -3.46940        3.24046       -0.43354
C          4.40362        7.65426        0.18561
C          5.76757        7.83694        0.32292
C          6.35117        9.22768        0.35876
C          6.93651        9.69288       -0.99438
C          7.46604       11.12589       -0.93291
H          6.91505        0.47798        7.24084
H          8.34279        0.28042        6.20618
H          6.91863       -0.74862        5.95979
H          6.98638        2.30892        5.52545
H          5.57124        1.28724        5.28468
H          6.78019        0.02234        3.48178
H          8.20512        1.03051        3.72250
H          6.87800        3.06780        3.07565
H          5.44170        2.06927        2.85565
H          6.59701        0.75947        1.05446
H          8.04494        1.72259        1.25095
H          5.26364        2.73910        0.40852
H          6.57230        2.40080       -0.70806
H          8.94260        3.58688        0.63052
H          9.73464        5.76422        0.73709
H          8.49961        7.71471        0.61889
H          4.12416        4.25847        0.13236
H          1.80053        7.15126        0.27048
H          1.95355        5.40381        0.58567
H          2.51090        5.03668       -1.85610
H          2.12763        6.76582       -2.16027
H         -1.45681        3.45965       -2.32138
H         -1.80759        5.10351       -1.75506
H         -1.86849        4.24724        0.62294
H         -1.44232        2.63214        0.05318
H         -4.03579        4.14645       -0.69354
H         -3.91739        2.81751        0.47529
H         -3.61219        2.51329       -1.24610
H          3.75732        8.53419        0.14106
H          7.12389        9.30845        1.14113
H          5.55666        9.92778        0.65630
H          6.15419        9.61200       -1.76483
H          7.74018        9.00714       -1.31028
H          6.66806       11.83409       -0.66883
H          7.87719       11.43423       -1.90276
H          8.26392       11.23007       -0.18306
