45

C          5.99057       -1.73229      -10.55325
C          5.71978       -0.80996       -9.36372
C          6.38169       -1.31530       -8.07915
C          6.10706       -0.44706       -6.87920
O          5.31151        0.45974       -6.79866
O          6.89957       -0.82640       -5.79464
C          6.59524       -0.16065       -4.56634
C          7.37030        1.18342       -4.41374
C          8.82782        0.96640       -4.14479
C          9.29263        0.72243       -2.81066
C         10.63975        0.44513       -2.63192
C         11.49038        0.38356       -3.74039
N         11.06866        0.62553       -4.96565
N          9.77396        0.91990       -5.13254
C          9.60977        1.19474       -6.63277
C         10.70415        2.21112       -7.11422
F         10.37285        2.56849       -8.37532
F         10.63983        3.30725       -6.30330
F          9.76317        0.01903       -7.26356
F          8.40105        1.69028       -6.91104
C          8.38285        0.78233       -1.59427
C          8.50006       -0.49762       -0.75335
O          8.19888       -1.59549       -1.61157
C          8.69448        2.03596       -0.75267
H          5.50719       -1.34986      -11.46132
H          5.60269       -2.74556      -10.37301
H          7.06717       -1.81974      -10.76159
H          4.63754       -0.71376       -9.19547
H          6.08226        0.20615       -9.58186
H          7.47275       -1.41715       -8.19526
H          6.02698       -2.33038       -7.82716
H          6.85924       -0.86314       -3.76584
H          5.52494        0.08464       -4.52829
H          6.94448        1.70750       -3.54978
H          7.16897        1.80567       -5.28464
H         11.04460        0.26233       -1.63615
H         12.55158        0.14438       -3.65858
H         11.71320        1.77997       -7.09406
H          7.33744        0.83176       -1.91988
H          7.78529       -0.42282        0.08337
H          9.51206       -0.59213       -0.31579
H          8.17817       -2.41341       -1.09064
H          9.73162        2.03150       -0.38939
H          8.02954        2.07207        0.11980
H          8.54245        2.95570       -1.33150
