53

C          2.01621        1.18398       -0.01786
C          2.72758        0.47550       -1.17340
N          2.14143       -0.83301       -1.50882
C          1.19897       -1.01032       -2.45918
S          0.55342       -2.49441       -2.88523
S          0.68542        0.53419       -3.24073
C         -0.45660       -0.06943       -4.50716
C         -1.85160       -0.40462       -3.96800
C         -2.63031       -1.23005       -4.99908
C         -3.99149       -1.78587       -4.56969
C         -4.61210       -2.73798       -5.60934
O         -6.02390       -2.66865       -5.35359
C         -6.30791       -1.32416       -5.29003
N         -5.15678       -0.71827       -4.42495
C         -4.90867        0.70908       -4.67890
C         -4.58440        1.18028       -5.94921
C         -4.37690        2.55796       -6.08370
N         -4.48130        3.42999       -5.07303
C         -4.81169        2.95273       -3.86694
C         -5.03837        1.59582       -3.61326
C         -3.82524       -2.54381       -3.20391
O         -3.34120       -3.64986       -3.25381
C         -4.23052       -1.88577       -1.90194
C          2.66650       -1.98256       -0.74782
C          3.88816       -2.62041       -1.41082
H          2.52088        2.13390        0.20315
H          2.03164        0.57497        0.89595
H          0.97054        1.40206       -0.26989
H          3.78266        0.29606       -0.92205
H          2.73042        1.10195       -2.07662
H          0.00561       -0.96222       -4.95379
H         -0.48670        0.73527       -5.25694
H         -2.37862        0.52153       -3.69585
H         -1.71249       -1.00488       -3.05729
H         -2.03429       -2.13213       -5.22122
H         -2.73195       -0.69119       -5.95307
H         -4.27720       -3.76779       -5.45126
H         -4.38579       -2.41356       -6.63991
H         -7.27033       -1.14829       -4.79455
H         -6.25345       -0.80304       -6.26004
H         -5.45549       -0.78348       -3.44254
H         -4.48876        0.52609       -6.81486
H         -4.11485        2.97476       -7.05919
H         -4.90216        3.68368       -3.05985
H         -5.30689        1.25775       -2.61032
H         -5.32075       -1.97478       -1.74451
H         -3.94716       -0.82460       -1.84887
H         -3.74601       -2.42573       -1.08101
H          1.85430       -2.71402       -0.65274
H          2.91540       -1.61083        0.25688
H          3.62529       -3.03229       -2.39298
H          4.26420       -3.43983       -0.78359
H          4.70466       -1.89642       -1.54071
