73

C         12.75803        3.75697       -3.92035
C         11.78091        2.87266       -3.14118
C         12.42812        2.16840       -1.94352
C         11.46316        1.28217       -1.14911
C         12.11001        0.62116        0.07267
C         11.14753       -0.25695        0.87901
C         11.77734       -0.85419        2.14214
C         10.79875       -1.69967        2.96323
C         11.40403       -2.24598        4.26308
C         10.36590       -3.01394        5.08905
C         10.92323       -3.75657        6.33689
C         11.62333       -2.79027        7.31038
O         10.62050       -1.86404        7.69271
C         11.10004       -0.79808        8.53566
C          9.93756        0.12983        8.84346
C         10.34666        1.33096        9.70486
C          9.17326        2.26632       10.02183
C          9.57507        3.46868       10.87910
N          9.74311       -4.29910        7.05697
C          9.43978       -5.54365        6.84280
S         10.51982       -6.41640        5.87319
C         11.75510       -5.01095        5.90372
C         13.05458       -5.41576        6.64847
C         12.86563       -6.21331        7.94422
O         11.93275       -5.55606        8.81167
C         13.96930       -6.19071        5.67037
C         15.35789       -6.54309        6.21209
H         12.26617        4.24947       -4.77025
H         13.59863        3.16947       -4.31867
H         13.18110        4.54527       -3.27995
H         11.34681        2.11661       -3.81721
H         10.93249        3.48281       -2.78749
H         12.86261        2.92777       -1.26930
H         13.27853        1.55835       -2.29603
H         11.04854        0.50337       -1.81294
H         10.60031        1.88747       -0.81934
H         12.52310        1.40543        0.73123
H         12.97381        0.01514       -0.25256
H         10.76559       -1.07037        0.23776
H         10.26448        0.34101        1.16543
H         12.16923       -0.03709        2.77272
H         12.65191       -1.46806        1.86347
H         10.42932       -2.53964        2.34992
H          9.91146       -1.09124        3.20925
H         11.80273       -1.40680        4.85465
H         12.26849       -2.88821        4.01711
H          9.85791       -3.75700        4.45164
H          9.59437       -2.31131        5.43406
H         12.46462       -2.28848        6.79862
H         12.01025       -3.33920        8.18392
H         11.90773       -0.25891        8.00579
H         11.52971       -1.22520        9.46112
H          9.14800       -0.44462        9.35573
H          9.50625        0.48148        7.89205
H         11.13774        1.90257        9.18928
H         10.79411        0.97591       10.64936
H          8.38290        1.69354       10.53564
H          8.72599        2.61846        9.07712
H          9.99252        3.15035       11.84566
H          8.71224        4.11489       11.08833
H         10.33547        4.08380       10.37601
H          9.20827       -3.65785        7.64754
H          8.53380       -5.99522        7.24968
H         12.02190       -4.86243        4.84901
H         13.56212       -4.46780        6.89967
H         13.84389       -6.31268        8.43780
H         12.50959       -7.23231        7.69917
H         11.98013       -5.97703        9.68376
H         14.08304       -5.57614        4.76347
H         13.45687       -7.11526        5.34894
H         15.87690       -5.65274        6.59592
H         15.97875       -6.96849        5.41375
H         15.31958       -7.28651        7.01914
