115

C         -0.50991       -2.56285       -1.07544
C          0.87503       -3.11893       -0.73715
C          1.35256       -2.75630        0.67429
C          2.75287       -3.28606        0.99829
C          3.24005       -2.95010        2.41146
C          4.65863       -3.45227        2.70436
C          5.12127       -3.14782        4.12987
C          6.52556       -3.68794        4.44028
N          6.90957       -3.39521        5.83206
C          6.46965       -4.12253        6.88573
S          6.50826       -3.61537        8.47756
S          5.87765       -5.75785        6.40640
C          4.84030       -6.20371        7.82360
C          3.49981       -5.47548        7.72986
C          2.56186       -5.68961        8.92327
C          1.31499       -4.78858        8.91935
S          1.82040       -3.00544        9.09566
C          1.66183       -2.75153        7.41037
N          1.03559       -3.73068        6.79165
C          0.47374       -4.81985        7.61998
C         -1.04069       -4.63202        7.80474
C         -1.72331       -5.83053        8.47635
C         -3.24519       -5.66584        8.53175
C         -3.95078       -6.84695        9.21926
N         -5.39504       -6.71439        9.20255
C         -6.22501       -7.17354        8.19882
C         -7.50622       -6.72807        8.46274
C         -7.45096       -5.96276        9.66144
C         -6.13802       -5.96523       10.09281
C          2.21103       -1.56502        6.70168
C          3.52358       -1.06018        7.31983
O          3.99798       -0.04781        6.46936
C          5.21444        0.55384        6.95716
C          5.91952        1.24694        5.80526
C          7.24381        1.88797        6.23470
C          8.05960        2.43504        5.05771
C          9.38250        3.07264        5.48821
C          7.67347       -2.15373        6.03144
C          9.18771       -2.36824        5.94437
C          9.94601       -1.04369        6.07414
C         11.46904       -1.19338        6.01160
C         12.20420        0.14574        6.12369
C         13.73042        0.02412        6.09851
C         14.44825        1.37380        6.20902
C         15.97408        1.25362        6.19498
H         -0.82052       -2.85073       -2.08883
H         -0.52406       -1.46397       -1.02475
H         -1.27467       -2.93604       -0.37756
H          1.60964       -2.74722       -1.47109
H          0.87073       -4.21661       -0.84648
H          0.62870       -3.14826        1.41280
H          1.33972       -1.65831        0.79280
H          3.47086       -2.87725        0.26659
H          2.77317       -4.38079        0.85775
H          2.54122       -3.39045        3.15056
H          3.19853       -1.85744        2.56670
H          5.35809       -2.99907        1.98129
H          4.70424       -4.54096        2.52914
H          4.41997       -3.60413        4.85011
H          5.10006       -2.06067        4.31519
H          7.27734       -3.21983        3.78972
H          6.57985       -4.76765        4.24779
H          5.38844       -5.93108        8.73783
H          4.73902       -7.29722        7.76994
H          3.00855       -5.76660        6.78811
H          3.74094       -4.40421        7.65391
H          3.10955       -5.52467        9.86468
H          2.20214       -6.73294        8.95722
H          0.67922       -5.00865        9.78601
H          0.89862       -3.70628        5.78151
H          0.66486       -5.76928        7.09427
H         -1.48812       -4.47490        6.80959
H         -1.22867       -3.70933        8.37831
H         -1.33270       -5.96851        9.49913
H         -1.46983       -6.75263        7.92465
H         -3.64820       -5.56294        7.51162
H         -3.50654       -4.73768        9.06451
H         -3.61968       -6.93565       10.26578
H         -3.68908       -7.79227        8.71976
H         -5.83549       -7.79188        7.39620
H         -8.38845       -6.94653        7.87002
H         -8.28270       -5.48096       10.16502
H         -5.67305       -5.51494       10.96429
H          1.46309       -0.75330        6.72477
H          2.37248       -1.81687        5.64110
H          4.25949       -1.88335        7.41435
H          3.32866       -0.67850        8.34457
H          5.85815       -0.23164        7.39179
H          4.96683        1.26652        7.76616
H          5.24957        2.00473        5.36876
H          6.10453        0.50287        5.01232
H          7.85253        1.14537        6.77825
H          7.04706        2.70068        6.95441
H          7.45423        3.17083        4.50275
H          8.25860        1.61364        4.34763
H          9.21433        3.93880        6.14478
H          9.96017        3.42152        4.62152
H         10.01016        2.35741        6.03884
H          7.40517       -1.75240        7.01617
H          7.34250       -1.43754        5.26414
H          9.44301       -2.85274        4.98704
H          9.49218       -3.06400        6.74211
H          9.66949       -0.55824        7.02639
H          9.61621       -0.35553        5.27588
H         11.75119       -1.68901        5.06639
H         11.80288       -1.86721        6.81941
H         11.89654        0.65159        7.05637
H         11.87967        0.80734        5.30118
H         14.04294       -0.48023        5.16712
H         14.05950       -0.63340        6.92241
H         14.12635        1.88001        7.13509
H         14.12141        2.02575        5.38088
H         16.33375        0.63280        7.02904
H         16.45611        2.23693        6.28206
H         16.33016        0.79107        5.26244
