56

C          3.06296       -3.81154       -1.91308
C          1.65434       -3.31713       -2.11626
C          1.38905       -2.15607       -2.86194
C          0.08586       -1.70711       -3.05838
C         -1.02456       -2.38362       -2.52364
C         -0.74062       -3.53078       -1.76758
C          0.56084       -3.99582       -1.56949
O         -1.79067       -4.30268       -1.23333
C         -2.19673       -3.93465        0.07749
C         -3.48383       -4.69234        0.42569
C         -3.93007       -4.46637        1.88554
C         -3.91315       -3.02807        2.43906
C         -4.80038       -1.98532        1.73432
C         -6.30317       -2.26049        1.88315
S         -7.22800       -1.17933        0.75995
O         -7.11650        0.19015        1.19816
O         -6.91664       -1.55821       -0.60350
Cl        -9.16652       -1.81928        1.14523
C         -3.34046       -6.20855        0.13197
N         -3.73036       -6.43084       -1.26023
C         -4.45153       -5.47022       -1.80409
S         -4.82366       -4.14214       -0.78967
N         -4.80994       -5.47720       -3.12579
O         -4.87144       -6.78392       -3.64242
O         -5.98323       -4.74977       -3.34627
C         -2.44869       -1.89954       -2.75175
C         -2.75378       -0.62068       -1.94773
C         -2.77324       -1.71251       -4.24427
H          3.64358       -3.10763       -1.29872
H          3.59159       -3.91167       -2.87138
H          3.08124       -4.78731       -1.41175
H          2.21896       -1.60075       -3.30278
H         -0.07682       -0.80606       -3.65275
H          0.71011       -4.91140       -0.99270
H         -2.35209       -2.84569        0.14798
H         -1.42138       -4.21081        0.82077
H         -3.25181       -5.06735        2.51381
H         -4.92453       -4.92199        2.01014
H         -2.88182       -2.64533        2.44251
H         -4.20087       -3.09040        3.49977
H         -4.54085       -1.91172        0.66496
H         -4.57771       -0.99527        2.15567
H         -6.67475       -2.04886        2.89446
H         -6.59821       -3.27950        1.59690
H         -3.99440       -6.80332        0.79012
H         -2.30008       -6.52981        0.27787
H         -3.49566       -7.27034       -1.78570
H         -4.43931       -6.71870       -4.51663
H         -5.77068       -4.16010       -4.09719
H         -3.11422       -2.68996       -2.37688
H         -2.16143        0.23134       -2.31078
H         -2.51469       -0.74772       -0.88175
H         -3.81661       -0.35204       -2.02985
H         -2.17985       -0.90613       -4.69792
H         -3.83181       -1.44427       -4.37591
H         -2.56912       -2.63043       -4.81358
