128

C         -1.35457       18.68453       -0.78417
C          0.15214       18.95520       -0.80879
C          0.97239       17.90747       -0.04741
C          2.48221       18.16745       -0.07302
C          3.30401       17.11267        0.67606
C          4.81455       17.36930        0.64029
C          5.63972       16.30727        1.37534
C          7.15031       16.56505        1.33906
C          7.97448       15.50201        2.07398
C          9.48357       15.77239        2.06756
C         10.29737       14.71435        2.82108
C         11.80273       15.00149        2.87218
C         12.59811       13.93050        3.62742
C         14.09546       14.23374        3.76109
C         14.86440       13.13460        4.50341
C         16.36425       13.41074        4.66998
C         17.09456       12.27393        5.39477
C         18.61384       12.46205        5.50816
C         19.29052       11.25884        6.18097
C         20.82638       11.20947        6.06005
P         21.76837       12.47739        6.95739
C         21.38782       12.40600        8.73897
C         22.22958       13.45205        9.47660
O         22.69881       14.42020        8.90282
O         22.37083       13.13234       10.75785
C         23.22640       14.01435       11.58329
C         22.45611       15.16814       12.20274
C         23.36010       15.95027       13.16899
C         22.67991       17.17300       13.79503
C         23.58412       17.91090       14.78919
C         22.94532       19.16582       15.39303
C         23.84579       19.87861       16.40910
C         23.21873       21.14744       16.99259
C         23.55314       12.29073        6.66423
C         23.97000       12.22792        5.18202
C         23.59233       13.45657        4.34460
C         24.18570       13.40086        2.93209
C         23.79663       14.58818        2.04473
C         24.40578       14.50686        0.64048
C         23.98697       15.65275       -0.28650
C         24.60126       15.55343       -1.68714
C         24.15651       16.67013       -2.63675
C         24.77183       16.56660       -4.03697
C         24.31675       17.68077       -4.98255
H         -1.91183       19.45218       -1.33901
H         -1.74204       18.67290        0.24566
H         -1.59296       17.71007       -1.23621
H          0.35434       19.95303       -0.38354
H          0.50151       18.99810       -1.85451
H          0.76701       16.90827       -0.47109
H          0.62575       17.86569        1.00055
H          2.68794       19.16354        0.35742
H          2.82466       18.21732       -1.12185
H          3.09353       16.11660        0.24801
H          2.96634       17.06533        1.72653
H          5.02577       18.36155        1.07683
H          5.14861       17.42662       -0.41080
H          5.42822       15.31533        0.93830
H          5.30573       16.24934        2.42648
H          7.36039       17.55624        1.77855
H          7.48500       16.62535        0.28837
H          7.77864       14.51305        1.62311
H          7.62432       15.42970        3.11893
H          9.67594       16.76475        2.51246
H          9.84063       15.83595        1.02454
H         10.12970       13.72675        2.35605
H          9.91205       14.62879        3.85259
H         11.96860       15.98396        3.34848
H         12.19554       15.09441        1.84442
H         12.46797       12.95766        3.12134
H         12.16558       13.80339        4.63563
H         14.22821       15.19571        4.28653
H         14.53374       14.37396        2.75728
H         14.73294       12.17804        3.96768
H         14.41105       12.98490        5.49913
H         16.50822       14.35707        5.21978
H         16.82050       13.56306        3.67607
H         16.89869       11.32614        4.86379
H         16.66525       12.14736        6.40381
H         18.82858       13.39416        6.06071
H         19.03845       12.59980        4.49814
H         18.92160       10.33572        5.70736
H         18.98525       11.18455        7.23724
H         21.13473       11.30391        5.00622
H         21.22428       10.24576        6.41843
H         21.36002       13.75165        6.51462
H         21.56337       11.39007        9.11962
H         20.31741       12.62779        8.87322
H         24.04980       14.36856       10.94891
H         23.61526       13.32962       12.34701
H         21.57861       14.77623       12.74095
H         22.08596       15.83620       11.40953
H         24.26931       16.27816       12.63585
H         23.70462       15.27529       13.97131
H         21.75308       16.85821       14.30516
H         22.36760       17.86686       12.99543
H         24.52687       18.18980       14.28625
H         23.86953       17.21975       15.60164
H         21.99112       18.89525       15.87856
H         22.68276       19.86843       14.58242
H         24.80619       20.13015       15.92788
H         24.09270       19.17980       17.22617
H         23.00137       21.88469       16.20528
H         23.88723       21.62787       17.71991
H         22.27219       20.92629       17.50789
H         23.85013       11.37607        7.20297
H         24.01952       13.14475        7.17775
H         23.57311       11.31234        4.71528
H         25.06459       12.10834        5.17767
H         23.93359       14.37258        4.85658
H         22.49261       13.54637        4.26270
H         23.87050       12.46288        2.44240
H         25.28524       13.34597        3.00915
H         24.11019       15.52932        2.52891
H         22.69624       14.64024        1.96347
H         24.12212       13.54525        0.17763
H         25.50649       14.48752        0.72323
H         24.26853       16.61781        0.16995
H         22.88598       15.66859       -0.37179
H         24.34136       14.57536       -2.12931
H         25.70225       15.56217       -1.60333
H         24.41434       17.65005       -2.19745
H         23.05530       16.65938       -2.72237
H         24.51735       15.58557       -4.47299
H         25.87161       16.58142       -3.95136
H         23.22519       17.66770       -5.12012
H         24.77638       17.57869       -5.97519
H         24.58814       18.67290       -4.59217
