45

N          1.53257        0.91241        0.93343
N          2.51209        0.25855        0.16262
C          3.12082        0.95310       -0.93895
C          4.22748        0.15243       -1.63597
C          3.81193       -1.23430       -2.15788
C          4.95321       -1.91158       -2.88214
C          5.87594       -2.69447       -2.17279
C          6.95170       -3.29526       -2.82971
C          7.11762       -3.12045       -4.20644
C          6.20330       -2.34389       -4.92285
C          5.12880       -1.74303       -4.26286
S          1.69667        1.20762       -2.23152
C          1.62314        2.85330       -1.89762
N          2.52616        3.36837       -1.09111
C          3.56524        2.42402       -0.65969
C          2.65051        4.80315       -0.74731
C          1.33897        5.55010       -0.46358
C          0.48048        5.08205        0.71552
C          1.18108        4.98874        2.11164
Br         2.08503        6.63429        2.63047
F          0.30928        4.62297        3.05827
F          2.13018        3.98682        2.04279
Br        -1.07364        6.25687        0.85778
F          0.01443        3.79385        0.46086
N          3.39511       -0.56436        0.89428
H          0.62787        0.89341        0.46409
H          1.77364        1.87254        1.19734
H          5.05828        0.03850       -0.92405
H          4.59833        0.75758       -2.47715
H          2.95620       -1.12781       -2.84719
H          3.47671       -1.85601       -1.31828
H          5.74446       -2.84187       -1.09827
H          7.65746       -3.90806       -2.26778
H          7.95367       -3.59443       -4.72145
H          6.32217       -2.21257       -5.99895
H          4.40947       -1.14757       -4.83095
H          0.83443        3.47683       -2.31940
H          3.76919        2.57803        0.40956
H          4.48791        2.64232       -1.21821
H          3.15708        5.30922       -1.58401
H          3.32591        4.85592        0.11366
H          0.67973        5.55000       -1.34326
H          1.60892        6.60077       -0.29632
H          2.85003       -1.35035        1.25273
H          3.75689       -0.05757        1.71054
