58

Br         3.59670        4.20413       -0.68349
C          3.30988        3.68049       -2.55628
C          3.77644        2.25191       -2.75501
C          3.02591        1.15877       -1.97065
C          1.59064        0.99291       -2.32790
N          0.65520        1.95898       -2.24134
N         -0.50275        1.44366       -2.60370
N         -0.31513        0.17921       -2.91277
N          0.99215       -0.14901       -2.74769
C          1.52904       -1.47627       -3.10289
C          1.88590       -1.58755       -4.59414
C          1.91831       -3.04647       -5.06403
S          0.26864       -3.76642       -5.33248
C          0.05030       -4.89269       -3.93105
S          1.03259       -4.84296       -2.57990
N         -0.97750       -5.75054       -4.10054
C         -1.83641       -5.84516       -5.29138
C         -3.30780       -5.74531       -4.87484
O         -3.64605       -6.73352       -3.91442
C         -2.83509       -6.61170       -2.74869
C         -1.34777       -6.74078       -3.07602
C         -1.42393       -0.73632       -3.24598
C         -1.91177       -1.57400       -2.05117
C         -2.25994       -0.79449       -0.77629
C         -3.42213        0.19307       -0.92694
S         -3.63999        1.08688        0.62775
O         -4.17194        0.18390        1.62623
O         -2.44096        1.85399        0.85556
O         -4.80883        2.13032        0.21191
Br         3.66973        1.86872       -4.70392
H          3.90783        4.36964       -3.15874
H          2.24394        3.81851       -2.75846
H          4.84327        2.16210       -2.52220
H          3.06936        1.44697       -0.90441
H          3.55674        0.20602       -2.08141
H          0.79206       -2.23861       -2.81017
H          2.40123       -1.63851       -2.45828
H          2.86435       -1.11902       -4.77564
H          1.15893       -1.02250       -5.19729
H          2.44223       -3.70478       -4.35384
H          2.41304       -3.10773       -6.04230
H         -1.65265       -6.82015       -5.77188
H         -1.59033       -5.05752       -6.01233
H         -3.95465       -5.91450       -5.74585
H         -3.51232       -4.73167       -4.47277
H         -3.13979       -7.41734       -2.06838
H         -3.02639       -5.63906       -2.25307
H         -1.13693       -7.74407       -3.48082
H         -0.72481       -6.57615       -2.18976
H         -1.09221       -1.38220       -4.07182
H         -2.20110       -0.05941       -3.62195
H         -1.16348       -2.34354       -1.80790
H         -2.79354       -2.12003       -2.42353
H         -1.37617       -0.25051       -0.40795
H         -2.51116       -1.52475        0.00621
H         -4.37484       -0.30910       -1.14463
H         -3.23680        0.97111       -1.68040
H         -5.61341        1.88146        0.70764
