60

C         15.38796        5.35857        0.93698
C         14.78238        4.88847       -0.38724
C         13.31011        4.48199       -0.26295
C         12.68458        4.02958       -1.58983
C         11.27194        3.43419       -1.45727
C         10.24260        4.46160       -1.00019
O          8.88471        3.94250       -0.93277
C          8.65755        3.03008        0.11859
C          8.72685        3.68605        1.47200
N          9.43654        3.23817        2.51875
N          9.28781        4.10451        3.50619
N          8.50246        5.07030        3.09344
N          8.12342        4.84654        1.81126
C          7.12843        5.62533        1.04842
C          5.70606        5.11079        1.33435
O          5.55504        5.24359        2.74039
C          4.66600        4.31283        3.40878
C          5.19975        4.14799        4.80498
C          4.75222        4.97375        5.84546
C          5.33112        4.88781        7.11468
C          6.36460        3.97742        7.35196
C          6.81291        3.14404        6.32143
C          6.23027        3.22896        5.05628
C          4.67386        5.90202        0.53536
C          8.18459        6.23740        3.94506
C          8.52891        7.56840        3.32104
C          9.68460        7.96225        2.77043
Br        11.22545        6.88146        2.63368
Br         7.11332        8.84244        3.40258
H         16.44321        5.63850        0.81974
H         15.33857        4.56920        1.70201
H         14.85602        6.23836        1.33097
H         15.36036        4.03403       -0.77637
H         14.87717        5.68614       -1.14270
H         12.74485        5.33435        0.15377
H         13.22021        3.66596        0.47694
H         13.33148        3.26581       -2.04856
H         12.66701        4.87317       -2.30068
H         11.31599        2.59117       -0.74733
H         10.94382        3.02294       -2.42363
H         10.17054        5.28404       -1.72530
H         10.51547        4.90117       -0.02423
H          9.36931        2.18881        0.14148
H          7.65156        2.61047       -0.03885
H          7.41122        5.50709       -0.00544
H          7.22419        6.67856        1.33651
H          5.65105        4.03867        1.05846
H          4.67033        3.35269        2.86354
H          3.63915        4.71257        3.40684
H          3.94620        5.68687        5.65990
H          4.97061        5.52701        7.92119
H          6.81114        3.90480        8.34436
H          7.60635        2.41976        6.50910
H          6.57111        2.56638        4.25650
H          4.70712        6.96580        0.80753
H          3.66634        5.52362        0.74973
H          4.84434        5.80487       -0.54612
H          8.77045        6.04506        4.85524
H          7.11700        6.17819        4.18371
H          9.82619        8.95972        2.36052
