58

C          6.82474        2.15733        1.73674
C          6.16745        0.80825        1.52330
O          6.10476        0.49697        0.09363
P          4.70781        0.36704       -0.68598
O          3.49586        0.39065        0.16964
C          4.73682        1.68440       -1.94658
C          3.44301        1.67596       -2.76513
C          3.23851        2.84848       -3.68383
N          4.16142        3.81358       -3.68404
N          3.91984        4.84147       -4.49475
C          2.87152        5.06872       -5.30920
C          1.87819        4.05033       -5.32528
C          2.09823        2.93830       -4.51558
C          0.62610        4.17747       -6.14232
C         -0.63646        4.41100       -5.26475
C         -1.85123        4.77551       -6.13592
N         -1.66138        6.07143       -6.79461
O         -0.90499        3.28926       -4.42865
Si         2.95002        6.72850       -6.33133
C          1.46896        7.77684       -5.86882
C          4.55885        7.54776       -5.79021
C          3.02196        6.28392       -8.15344
O          4.91371       -0.91736       -1.62648
C          4.91285       -2.25206       -1.02501
C          4.99324       -3.27324       -2.13962
H          6.94225        2.34075        2.81425
H          6.21387        2.97040        1.32129
H          7.81982        2.19080        1.27406
H          5.14963        0.77264        1.93508
H          6.76038        0.00019        1.97336
H          5.62773        1.57064       -2.57906
H          4.84444        2.62931       -1.39500
H          2.57509        1.63354       -2.08247
H          3.37489        0.75557       -3.36899
H          4.66547        5.54238       -4.46489
H          1.36949        2.12742       -4.50157
H          0.46633        3.25265       -6.71962
H          0.69303        5.00899       -6.85506
H         -0.43746        5.24670       -4.57339
H         -2.74221        4.73282       -5.48545
H         -1.97671        3.99932       -6.90936
H         -2.03658        6.82542       -6.21873
H         -2.16501        6.10855       -7.67949
H         -1.43423        2.64477       -4.92880
H          1.40420        7.93407       -4.78334
H          0.52658        7.33668       -6.22513
H          1.57760        8.76503       -6.34054
H          4.57941        7.81367       -4.72259
H          4.65566        8.49544       -6.34112
H          5.45874        6.96317       -6.03400
H          2.10192        5.80931       -8.51689
H          3.86594        5.61675       -8.37580
H          3.16720        7.20687       -8.73434
H          3.99421       -2.36568       -0.43093
H          5.78176       -2.32453       -0.35315
H          4.12313       -3.20046       -2.80546
H          5.01168       -4.28421       -1.71022
H          5.90549       -3.13587       -2.73477
