71

C          1.08414       -0.09719       -0.28341
C          2.60950        0.03119       -0.26329
C          3.12097        1.01926        0.79118
C          4.64615        1.16804        0.81023
C          5.15611        2.06573        1.94233
C          6.67939        2.23540        1.95903
C          7.17429        3.05648        3.15542
C          8.69633        3.26032        3.16454
C          9.14993        3.98846        4.41491
O         10.58018        4.24791        4.30937
C         11.10680        4.80102        5.46924
N         12.55116        4.95689        5.24541
C         13.28420        6.04194        4.88945
C         12.76505        7.42623        4.71244
C         13.88895        8.45269        4.51470
C         13.34314        9.86744        4.32152
C         14.47980       10.89067        4.26524
O         15.63918       10.61671        4.45248
O         14.10980       12.17342        3.99916
N         14.55427        5.64891        4.70495
N         14.61662        4.34173        4.92291
N         13.42344        3.91449        5.23886
C         13.05962        2.51560        5.51979
C         14.17724        1.54753        5.15472
C         13.52398        0.15665        4.98583
O         12.34727        0.06596        4.63708
N         14.36888       -0.88405        5.21858
C         14.14094       -2.27981        5.08963
C         15.17347       -3.12632        5.52421
C         15.03506       -4.50810        5.42198
C         13.86700       -5.05698        4.88509
C         12.84349       -4.20990        4.45484
C         12.96435       -2.82201        4.55101
H          0.75165       -0.82870       -1.03238
H          0.60413        0.86351       -0.52182
H          0.69809       -0.42482        0.69354
H          2.96728        0.34185       -1.25949
H          3.05989       -0.95857       -0.07661
H          2.77396        0.69445        1.78818
H          2.65936        2.00789        0.62020
H          4.98767        1.56776       -0.16058
H          5.10860        0.16977        0.90497
H          4.82754        1.64605        2.90937
H          4.67961        3.05895        1.86753
H          7.00775        2.71542        1.02099
H          7.16002        1.24204        1.97711
H          6.86325        2.55444        4.08795
H          6.67390        4.04019        3.15667
H          9.00451        3.84120        2.28078
H          9.21243        2.28895        3.10718
H          8.96436        3.38144        5.31997
H          8.62584        4.95444        4.53228
H         10.96226        4.16437        6.36343
H         10.72254        5.81274        5.69710
H         12.14746        7.69021        5.58774
H         12.07823        7.41811        3.84707
H         14.50539        8.17202        3.65010
H         14.56702        8.44059        5.37883
H         12.67290       10.15209        5.15137
H         12.74533        9.94181        3.39730
H         13.14879       12.23826        3.85893
H         12.17208        2.26954        4.91491
H         12.79171        2.45082        6.58537
H         14.98647        1.55233        5.89645
H         14.61804        1.82850        4.18590
H         15.30539       -0.64083        5.52967
H         16.08695       -2.69872        5.94526
H         15.84236       -5.15590        5.76375
H         13.75762       -6.13803        4.80123
H         11.93048       -4.63066        4.03253
H         12.16404       -2.16772        4.21760
