75

C          4.99313        1.90155        2.12712
C          4.22372        3.01930        2.83497
N          2.77366        3.02182        2.55929
C          1.95321        2.20235        3.26034
S          2.43976        1.18292        4.48334
S          0.23018        2.30974        2.73668
C         -0.55527        1.10180        3.83799
C         -2.03624        0.98732        3.46421
C         -2.72214       -0.04637        4.37176
C         -4.26225       -0.12844        4.26637
C         -4.70225       -0.49311        2.83141
C         -6.20946       -0.59486        2.56736
C         -6.52105       -0.54402        1.06671
C         -8.02161       -0.65017        0.78423
S         -8.33918       -0.38848       -0.97150
O         -8.09221        1.00349       -1.29427
O         -7.71563       -1.45895       -1.70625
O         -9.94510       -0.63416       -1.02463
N         -4.83381        1.21304        4.62201
C         -5.28989        1.23933        5.88074
N         -5.66570        2.34981        6.52985
N         -5.32042        0.01173        6.39558
C         -4.97704       -1.01009        5.37614
C         -4.40254       -2.34052        5.96809
C         -3.03336       -2.25009        6.74489
C         -2.95110       -1.18343        7.85211
C         -2.57997       -3.59658        7.34473
C         -5.56589       -2.85859        6.89409
O         -5.51905       -4.23270        7.23118
C         -4.26249       -3.31428        4.78034
C          2.29236        3.93440        1.51162
C          2.39024        3.38008        0.08710
H          6.05796        1.97154        2.38771
H          4.90649        1.97089        1.03569
H          4.63004        0.91739        2.44785
H          4.59875        4.00485        2.52515
H          4.34768        2.92775        3.92261
H         -0.42524        1.42881        4.87922
H         -0.03039        0.14215        3.72978
H         -2.13160        0.70634        2.40536
H         -2.50060        1.98479        3.56630
H         -2.45115        0.17225        5.41489
H         -2.30726       -1.03675        4.14007
H         -4.20003       -1.42788        2.54310
H         -4.28604        0.27714        2.16318
H         -6.73513        0.23374        3.07175
H         -6.61905       -1.52679        2.99029
H         -5.99466       -1.35460        0.54041
H         -6.14052        0.40185        0.64949
H         -8.60153        0.11635        1.31767
H         -8.42818       -1.64194        1.02693
H        -10.36035        0.22236       -1.24267
H         -4.47566        2.05016        4.17170
H         -5.61613        3.25826        6.08709
H         -6.03172        2.30947        7.47240
H         -5.79213       -0.21479        7.26342
H         -5.93363       -1.31865        4.92311
H         -2.27664       -1.98966        5.99062
H         -3.70365       -1.34140        8.64052
H         -3.05207       -0.15411        7.48656
H         -1.97189       -1.25237        8.34377
H         -3.21475       -3.91385        8.18130
H         -1.55516       -3.48381        7.72295
H         -2.56773       -4.41220        6.61268
H         -6.53653       -2.61576        6.41900
H         -5.53235       -2.33073        7.86169
H         -5.91355       -4.75281        6.51493
H         -3.41432       -3.05166        4.13501
H         -5.17053       -3.33380        4.15865
H         -4.08551       -4.33441        5.13677
H          2.87847        4.86092        1.60260
H          1.25282        4.20752        1.74577
H          3.43245        3.22215       -0.21576
H          1.94146        4.09457       -0.61663
H          1.85344        2.42687       -0.00413
