59

C          2.29083       -3.69368        7.18938
C          3.77600       -3.80336        6.83692
C          4.04610       -3.75493        5.32900
C          5.52915       -3.90747        4.97376
C          5.79490       -3.85330        3.46373
C          7.25569       -4.08884        3.12857
O          7.41802       -3.99742        1.69241
C          8.71136       -4.30600        1.24845
C          8.99802       -5.78611        1.32085
N          8.16996       -6.78433        0.98734
C          6.83526       -6.73097        0.36091
C          6.83456       -5.88814       -0.92177
O          8.01909       -6.15325       -1.63876
Si         8.24936       -5.75976       -3.27807
C          9.97813       -6.38439       -3.62487
C          6.95256       -6.63835       -4.30765
C          8.12015       -3.89605       -3.47196
N          8.74241       -8.00270        1.18962
C          9.93740       -7.73698        1.65544
N         10.13816       -6.38207        1.75950
C         11.37662       -5.71294        2.18493
C         12.20491       -5.24729        0.97992
C         13.37944       -4.38162        1.41978
F         12.94177       -3.26946        2.07381
F         14.19971       -5.05272        2.26722
F         14.10600       -3.97964        0.35960
H          2.13516       -3.72253        8.27592
H          1.71263       -4.51952        6.74934
H          1.85924       -2.75277        6.81780
H          4.18380       -4.74252        7.24794
H          4.33427       -2.99020        7.33059
H          3.66698       -2.80278        4.91903
H          3.46801       -4.55151        4.82833
H          5.90034       -4.86489        5.38034
H          6.11027       -3.11646        5.47783
H          5.49015       -2.87601        3.05789
H          5.18298       -4.61295        2.94956
H          7.57673       -5.09028        3.47801
H          7.90797       -3.33626        3.60912
H          9.49047       -3.76162        1.81469
H          8.78511       -3.99057        0.19501
H          6.11429       -6.33664        1.08915
H          6.60752       -7.78074        0.14818
H          6.73778       -4.81626       -0.67690
H          5.92331       -6.17416       -1.47779
H         10.05096       -7.46550       -3.44361
H         10.72345       -5.87583       -2.99709
H         10.25026       -6.20215       -4.67401
H          6.98875       -7.72536       -4.15112
H          7.12613       -6.44924       -5.37681
H          5.93424       -6.29129       -4.08168
H          8.86599       -3.37141       -2.85749
H          7.12354       -3.52168       -3.19760
H          8.29655       -3.60769       -4.51826
H         10.67525       -8.48249        1.93489
H         11.93540       -6.42974        2.79836
H         11.10502       -4.86890        2.83187
H         11.59834       -4.64289        0.29107
H         12.60090       -6.10351        0.41744
