88

C          0.69032       -0.19756       -0.26275
C          2.22010       -0.19725       -0.20200
C          2.78367        0.73401        0.87683
C          4.31431        0.75657        0.93734
C          4.86886        1.67588        2.02975
C          6.39887        1.74045        2.06852
C          6.94249        2.64754        3.17648
C          8.46855        2.77829        3.17623
C          9.00445        3.67534        4.29622
C         10.52692        3.84216        4.27402
C         11.05862        4.73172        5.40202
C         12.58042        4.90379        5.37742
C         13.10415        5.78421        6.51632
C         14.63004        5.92717        6.49594
C         15.16418        6.77624        7.64166
O         14.74837        8.13091        7.45689
C         15.05636        8.95215        8.56571
C         16.57409        9.08121        8.75020
N         17.14441        7.65031        8.88672
C         16.70336        6.69012        7.75323
C         17.49585        6.94625        6.52916
N         18.37122        6.12883        6.02028
N         18.86352        6.72374        4.87611
C         18.25231        7.88413        4.76723
O         17.35148        8.10069        5.79436
S         18.49241        9.04365        3.51459
C         17.50004       10.47209        4.10023
C         17.66623       11.60151        3.08069
C         16.89148       12.86174        3.49179
C         17.04648       14.00037        2.48038
C         17.01414        9.90654        9.89314
N         17.98119       10.77573        9.89991
N         18.03260       11.31489       11.16960
C         17.08552       10.72207       11.86595
O         16.38332        9.79655       11.11455
S         16.72526       11.01225       13.52642
C         15.23797        9.96914       13.80163
C         14.79937       10.16266       15.25208
H          0.31665       -0.87670       -1.04142
H          0.29956        0.80718       -0.48325
H          0.25262       -0.51753        0.69476
H          2.62826        0.09666       -1.18400
H          2.58286       -1.22321       -0.02041
H          2.38334        0.43350        1.86150
H          2.41155        1.75937        0.70258
H          4.71296        1.07264       -0.04297
H          4.68987       -0.26946        1.09785
H          4.49207        1.34177        3.01270
H          4.46793        2.69494        1.88572
H          6.77248        2.09412        1.09118
H          6.80712        0.72226        2.19569
H          6.60768        2.26584        4.15732
H          6.49368        3.65189        3.07636
H          8.79927        3.17605        2.20047
H          8.92356        1.77568        3.26211
H          8.69609        3.26289        5.27318
H          8.52863        4.66957        4.22569
H         10.83384        4.26381        3.30084
H         11.00520        2.84891        4.33663
H         10.75577        4.30668        6.37510
H         10.57814        5.72406        5.34291
H         12.88554        5.33790        4.40963
H         13.06232        3.91193        5.42983
H         12.79347        5.35305        7.48430
H         12.64160        6.78186        6.45776
H         14.96192        6.37409        5.54506
H         15.10118        4.93186        6.55307
H         14.74458        6.40379        8.60255
H         14.58493        8.56633        9.49143
H         14.64315        9.94811        8.36121
H         17.03480        9.49058        7.84208
H         16.83902        7.26216        9.79179
H         18.17352        7.70220        8.91098
H         16.99618        5.68446        8.08708
H         17.87552       10.77411        5.08818
H         16.45006       10.16215        4.18933
H         17.31903       11.26000        2.09189
H         18.73547       11.84569        2.97145
H         17.24167       13.19618        4.48272
H         15.82385       12.61159        3.60911
H         18.10015       14.29232        2.36521
H         16.48827       14.89030        2.79883
H         16.67109       13.70890        1.48900
H         15.50391        8.92344       13.60010
H         14.45766       10.28735       13.09849
H         15.58387        9.85840       15.95769
H         13.91314        9.54442       15.44651
H         14.53263       11.20755       15.45826
