106

C          0.55595       -0.70458        0.75829
C          2.08512       -0.68047        0.68905
C          2.65326       -1.47497       -0.49238
C          4.18260       -1.45009       -0.57755
C          4.74559       -2.24502       -1.76029
C          6.27448       -2.21700       -1.85125
C          6.83561       -3.00911       -3.03670
C          8.36426       -2.97725       -3.12874
C          8.92919       -3.76849       -4.31282
C         10.45800       -3.73099       -4.39958
C         11.02991       -4.51931       -5.58186
C         12.55866       -4.47516       -5.66358
C         13.13583       -5.26125       -6.84465
C         14.66428       -5.20693       -6.92492
C         15.24462       -5.99815       -8.10077
C         16.77271       -5.93283       -8.18486
C         17.34733       -6.74752       -9.34795
C         18.87574       -6.68532       -9.43818
C         19.42280       -7.52933      -10.59235
C         20.96822       -7.46732      -10.68591
C         21.46658       -8.25978      -11.83633
N         21.83776       -7.78554      -13.02742
N         22.11674       -8.75318      -13.94108
C         21.90913       -9.88181      -13.29712
N         21.51305       -9.61224      -11.98204
C         21.21547      -10.59655      -10.97538
C         21.91508      -10.69100       -9.84789
C         22.01144      -11.23891      -13.88772
C         20.63635      -11.77210      -14.35796
C         20.73885      -13.15351      -15.00951
C         19.37993      -13.69837      -15.46126
C         19.47152      -15.07509      -16.12687
C         18.11377      -15.63544      -16.56185
C         18.21056      -17.01254      -17.22551
C         16.85741      -17.58728      -17.65568
C         16.96327      -18.96416      -18.31864
C         15.61374      -19.54850      -18.75044
C         15.73357      -20.92426      -19.41061
H          0.18085       -0.13176        1.61774
H          0.17660       -1.73311        0.85422
H          0.10808       -0.27272       -0.14932
H          2.50302       -1.08056        1.62864
H          2.43518        0.36392        0.62561
H          2.22955       -1.07941       -1.43276
H          2.30790       -2.52208       -0.42574
H          4.60698       -1.84555        0.36241
H          4.52727       -0.40295       -0.64494
H          4.31805       -1.85132       -2.69952
H          4.40341       -3.29285       -1.69137
H          6.70310       -2.61271       -0.91335
H          6.61682       -1.16911       -1.91850
H          6.40585       -2.61444       -3.97451
H          6.49553       -4.05769       -2.96894
H          8.79400       -3.37082       -2.19048
H          8.70356       -1.92846       -3.19693
H          8.50071       -3.37594       -5.25204
H          8.59270       -4.81821       -4.24499
H         10.88567       -4.12345       -3.45992
H         10.79357       -2.68091       -4.46592
H         10.60324       -4.12778       -6.52232
H         10.69756       -5.57045       -5.51590
H         12.98556       -4.86620       -4.72303
H         12.89019       -3.42380       -5.72917
H         12.70727       -4.87366       -7.78580
H         12.81030       -6.31442       -6.77726
H         15.09313       -5.58971       -5.98199
H         14.98897       -4.15405       -6.99749
H         14.81120       -5.62236       -9.04433
H         14.92811       -7.05329       -8.02291
H         17.20748       -6.29425       -7.23654
H         17.09042       -4.88013       -8.28194
H         16.91147       -6.38898      -10.29670
H         17.03071       -7.80037       -9.24707
H         19.31809       -7.03257       -8.48862
H         19.19789       -5.63725       -9.56200
H         18.99202       -7.18777      -11.54750
H         19.11172       -8.57894      -10.46553
H         21.41905       -7.83325       -9.75312
H         21.30238       -6.42683      -10.81236
H         21.92219       -6.80740      -13.29403
H         20.38554      -11.25458      -11.23241
H         22.76373      -10.04171       -9.63022
H         21.64928      -11.44289       -9.10685
H         22.46187      -11.92715      -13.15561
H         22.69958      -11.17197      -14.74124
H         20.20563      -11.04982      -15.06953
H         19.93802      -11.81854      -13.50487
H         21.20303      -13.86125      -14.30100
H         21.42102      -13.09629      -15.87471
H         18.91357      -12.98331      -16.16115
H         18.70209      -13.75717      -14.59131
H         19.95319      -15.78483      -15.43158
H         20.13917      -15.01170      -17.00370
H         17.63114      -14.92653      -17.25745
H         17.44638      -15.69825      -15.68413
H         18.70128      -17.71718      -16.53109
H         18.87476      -16.94636      -18.10515
H         16.36558      -16.88368      -18.35042
H         16.19311      -17.65523      -16.77595
H         17.45784      -19.66628      -17.62405
H         17.62766      -18.89511      -19.19827
H         15.12076      -18.84733      -19.44508
H         14.95058      -19.61735      -17.87135
H         16.36112      -20.88069      -20.31339
H         14.75160      -21.31627      -19.70867
H         16.19014      -21.65673      -18.72818
