62

C          0.57272        0.33968        1.22838
C          2.06644        0.55699        1.16671
O          2.71132       -0.77053        1.23536
C          4.03055       -0.79969        1.04773
O          4.76258        0.13389        0.80250
C          4.53179       -2.25034        1.20522
N          5.88944       -2.38573        0.65015
C          6.91566       -2.33174        1.51091
C          8.24317       -2.33985        1.07995
C          9.31273       -2.29320        2.01614
C         10.61201       -2.27660        1.56328
C         10.87599       -2.30929        0.17163
C          9.85271       -2.36060       -0.75586
C          8.49992       -2.37719       -0.33219
C          7.38378       -2.42199       -1.22996
C          6.08656       -2.42297       -0.72961
C          4.87344       -2.52751       -1.61106
C          4.43704       -4.00457       -1.84415
C          3.30160       -4.10052       -2.79888
C          2.04935       -4.47814       -2.51508
F          1.66047       -4.82875       -1.28879
F          1.06600       -4.55552       -3.38981
F          3.59095       -3.74394       -4.07807
C          7.62511       -2.40632       -2.71860
C          7.72607       -0.97025       -3.25978
O          8.24801       -1.07495       -4.57132
C          8.46780        0.16440       -5.21450
C          9.59798        0.00829       -6.24085
C         11.07838        0.11521       -5.71884
C         11.63865       -0.86430       -4.62516
C         11.73707       -2.37670       -4.98240
F         12.44434       -2.98352       -3.98121
F         10.49901       -2.94107       -5.01351
F         12.90787       -0.44385       -4.36902
F         10.91448       -0.71509       -3.46998
F         11.90208       -0.01224       -6.79784
F         11.22410        1.37110       -5.20423
F          9.47043       -1.16079       -6.93129
F          9.47293        1.03797       -7.13645
H          0.06689        1.31352        1.18876
H          0.27673       -0.15856        2.16017
H          0.21968       -0.25959        0.37930
H          2.44539        1.15043        2.01009
H          2.39080        1.03624        0.23336
H          3.84150       -2.95769        0.73589
H          4.57247       -2.49528        2.27385
H          6.65965       -2.27252        2.56783
H          9.08977       -2.26757        3.08356
H         11.44047       -2.23867        2.27006
H         11.90873       -2.29385       -0.17821
H         10.10165       -2.38362       -1.81438
H          5.09714       -2.06823       -2.57944
H          4.02764       -1.95595       -1.21023
H          4.15290       -4.48716       -0.89876
H          5.29036       -4.57687       -2.24311
H          6.84316       -2.94502       -3.26637
H          8.56335       -2.92045       -2.95863
H          8.39374       -0.36031       -2.62248
H          6.73182       -0.48180       -3.26002
H          8.74533        0.96216       -4.50428
H          7.57577        0.49159       -5.77765
H         12.24817       -2.54237       -5.94273
