72

O          2.15292       -0.15359        1.39164
C          3.44906        0.38684        1.17991
C          3.25031        1.84433        0.78330
O          4.54234        2.39272        0.49183
C          4.51956        3.80596        0.24440
O          5.82449        4.28488        0.17880
C          6.47521        4.55745        1.43887
C          7.84337        3.86317        1.55357
C          7.77549        2.32730        1.71322
C          6.86978        1.79973        2.82654
C          7.31924        2.19983        4.23319
C          6.41034        1.55254        5.28188
S          7.03660        1.66902        6.97393
C          8.15152        0.25687        7.04705
S          8.42565       -0.75255        5.74093
N          8.72863        0.10535        8.26038
C          8.47061        0.99998        9.40006
C          9.48020        2.14585        9.50866
C          9.67018       -0.99891        8.51415
C          8.97682       -2.25445        9.04482
N          7.34809        1.72745        0.43211
C          7.84748        2.19856       -0.71769
N          7.54872        1.57078       -1.87744
N          8.66270        3.25114       -0.72541
C          8.78393        4.23727        0.36846
C         10.23804        4.50803        0.72130
C         10.63819        5.84884        0.78721
C         11.94277        6.21775        1.11572
C         12.88170        5.22024        1.37168
C         12.52106        3.87307        1.30288
C         11.20656        3.50708        0.98366
O         10.79100        2.20408        0.89778
C         11.73838        1.16286        1.16950
H          2.23816       -1.06374        1.71261
H          3.98567       -0.14154        0.36731
H          4.07163        0.33238        2.09170
H          2.77382        2.40000        1.61079
H          2.58743        1.90632       -0.09779
H          3.93472        4.30052        1.04607
H          4.05906        4.00883       -0.73730
H          5.82564        4.25692        2.27471
H          6.62158        5.64797        1.50305
H          8.31599        4.27508        2.45752
H          8.79708        1.97243        1.90434
H          6.88322        0.69881        2.76562
H          5.82853        2.10885        2.64831
H          7.31371        3.29322        4.36689
H          8.35026        1.85321        4.39715
H          6.28064        0.48011        5.07093
H          5.42152        2.03432        5.32022
H          8.49460        0.37796       10.30672
H          7.44449        1.38628        9.32172
H         10.50561        1.76757        9.61807
H          9.25289        2.76093       10.38982
H          9.44190        2.79102        8.62185
H         10.41164       -0.62726        9.23663
H         10.18610       -1.21515        7.57034
H          8.42899       -2.05488        9.97627
H          9.72498       -3.03050        9.25530
H          8.27259       -2.64865        8.30149
H          6.36189        1.45341        0.39069
H          7.06056        0.68457       -1.85154
H          7.57643        2.06886       -2.75807
H          9.24385        3.40798       -1.54319
H          8.40100        5.18420       -0.04594
H          9.89968        6.62368        0.56743
H         12.22246        7.26953        1.15782
H         13.90969        5.48295        1.62244
H         13.27040        3.10924        1.50070
H         12.57517        1.18570        0.45511
H         11.18423        0.22594        1.05076
H         12.12334        1.23011        2.19816
