92

C          1.47822       -0.94323        0.05583
C          2.86542       -0.39781        0.40493
C          3.39364        0.60428       -0.62678
C          4.79607        1.13965       -0.31968
C          5.28866        2.14038       -1.36954
C          6.76018        2.53954       -1.22585
C          7.25269        3.42229       -2.37820
C          8.77350        3.61336       -2.39577
C          9.20933        4.57794       -3.48402
O         10.64869        4.59722       -3.53302
C         11.14837        5.43459       -4.55754
C         12.59470        5.11054       -4.76312
N         13.58537        5.85125       -4.13905
C         14.79425        5.36066       -4.43203
N         14.61529        4.30546       -5.23813
C         13.24657        4.10974       -5.45869
C         12.76632        2.95754       -6.28362
C         11.25606        2.68537       -6.25505
C         10.94286        1.38657       -7.00099
S          9.21861        0.85863       -6.84703
C          9.25003       -0.05871       -5.29756
S         10.60520       -0.14656       -4.32600
N          8.07320       -0.67044       -5.02796
C          6.84740       -0.54901       -5.82457
C          5.72710        0.01339       -4.94296
O          5.51613       -0.78923       -3.78817
C          6.71107       -0.89762       -3.01220
C          7.86576       -1.48202       -3.82217
C         15.69520        3.46469       -5.79947
C         17.06048        4.14515       -5.80086
C         18.08639        3.23495       -6.48686
S         19.77585        3.87242       -6.40074
C         20.30219        3.29238       -4.77344
S         19.27908        2.46749       -3.74024
N         21.59255        3.58759       -4.49930
C         22.47697        4.28202       -5.45117
C         22.56967        5.79595       -5.23970
C         22.18063        3.19788       -3.20099
C         21.89664        4.18144       -2.06368
H          1.12229       -1.65673        0.81151
H          1.48624       -1.46255       -0.91414
H          0.73615       -0.13359       -0.01061
H          3.57848       -1.23512        0.49602
H          2.83554        0.08146        1.39804
H          2.68806        1.45046       -0.70473
H          3.40718        0.12811       -1.62316
H          5.50225        0.29195       -0.26409
H          4.81072        1.60802        0.67960
H          4.65604        3.04433       -1.34239
H          5.13294        1.70194       -2.37051
H          7.38258        1.62837       -1.17725
H          6.92118        3.05745       -0.26532
H          6.74722        4.40216       -2.32904
H          6.93987        2.97050       -3.33640
H          9.27024        2.64403       -2.56586
H          9.12470        3.98609       -1.42024
H          8.82793        5.59871       -3.28847
H          8.82197        4.25715       -4.47121
H         11.04574        6.50805       -4.29331
H         10.59428        5.29107       -5.50145
H         13.41643        6.64705       -3.53003
H         15.74280        5.74902       -4.08384
H         13.27773        2.04917       -5.92051
H         13.10439        3.09754       -7.32649
H         10.69603        3.51204       -6.71508
H         10.92722        2.57933       -5.21269
H         11.56034        0.55915       -6.62012
H         11.09994        1.48580       -8.08580
H          6.57003       -1.54900       -6.19696
H          7.00892        0.10396       -6.68982
H          4.77768        0.02466       -5.49465
H          5.98093        1.05205       -4.64999
H          6.46906       -1.54886       -2.16224
H          7.00478        0.09546       -2.62679
H          7.63114       -2.51203       -4.13787
H          8.79730       -1.48563       -3.24422
H         15.38980        3.20623       -6.82257
H         15.73299        2.53248       -5.21441
H         17.40507        4.31071       -4.76880
H         17.00976        5.11349       -6.32266
H         17.88535        3.13521       -7.56389
H         18.09565        2.23755       -6.02221
H         22.13097        4.05664       -6.46990
H         23.47021        3.82001       -5.35616
H         21.57756        6.26375       -5.28501
H         23.19254        6.23999       -6.02808
H         23.02628        6.04408       -4.27363
H         23.26222        3.10337       -3.36962
H         21.78396        2.20558       -2.94833
H         22.30701        5.17761       -2.27011
H         22.35888        3.80946       -1.13931
H         20.81742        4.27182       -1.88852
