55

C          3.71749       -7.95625        0.06400
C          3.82719       -6.46480        0.39107
C          4.78268       -5.71749       -0.54592
C          4.89752       -4.21389       -0.26687
N          5.42007       -3.90133        1.06852
C          6.73975       -3.83699        1.33433
O          7.63054       -4.05043        0.51079
C          7.10176       -3.41849        2.78551
N          8.53585       -3.53799        3.00870
C          9.08692       -4.89738        3.25419
C         10.43238       -4.93898        2.48530
N         10.57808       -3.51690        2.11993
C          9.46293       -2.80741        2.34065
N          9.35611       -1.52020        1.98112
C          8.43874       -0.51672        2.52880
C          7.18701       -0.25049        1.70675
C          7.06414       -0.72655        0.39634
C          5.91159       -0.47437       -0.34989
C          4.87082        0.26189        0.21540
C          4.99475        0.74788        1.51866
C          6.14518        0.51153        2.28357
C          6.25412        1.07447        3.67887
C         10.43480       -5.87096        1.26889
C         11.74015       -5.84052        0.47207
H          3.03095       -8.46812        0.75103
H          4.69551       -8.45442        0.13749
H          3.34362       -8.11385       -0.95789
H          4.16583       -6.34672        1.43470
H          2.82733       -6.00054        0.33920
H          4.44556       -5.83269       -1.58906
H          5.78852       -6.16521       -0.49858
H          3.91615       -3.72490       -0.34826
H          5.57071       -3.74244       -0.99535
H          4.75839       -3.70992        1.81310
H          6.59469       -4.05121        3.52628
H          6.75915       -2.39011        2.95385
H          8.39127       -5.64985        2.86021
H          9.20795       -5.05513        4.33478
H         11.25510       -5.20371        3.16667
H         11.46402       -3.09361        1.87209
H         10.05230       -1.19114        1.32100
H          9.02545        0.40970        2.63736
H          8.18644       -0.81847        3.55570
H          7.86246       -1.32287       -0.04551
H          5.83279       -0.85120       -1.36995
H          3.96599        0.46661       -0.35744
H          4.18341        1.33171        1.95726
H          5.34297        1.61875        3.95144
H          7.09691        1.77647        3.77536
H          6.40513        0.29001        4.43823
H          9.58113       -5.60201        0.62896
H         10.25165       -6.89057        1.64444
H         11.91834       -4.85632        0.01380
H         11.70812       -6.56813       -0.34821
H         12.60969       -6.08897        1.09888
