78

C          3.96485        8.57819        0.26016
C          3.36486        7.30064       -0.33094
C          3.30564        6.15290        0.68177
C          2.71380        4.88061        0.06280
N          2.56563        3.75883        1.00949
C          1.47725        3.69247        1.80967
S          0.21873        4.79656        1.79469
S          1.50179        2.27790        2.92377
C         -0.06461        2.52145        3.79814
C         -0.22039        1.51097        4.93308
C         -1.48992        1.76319        5.75486
N         -2.74643        1.49894        5.02677
C         -3.46409        0.30605        5.00293
N         -4.58715        0.45315        4.34315
N         -4.60552        1.76739        3.93391
C         -3.48967        2.41446        4.33707
N         -3.21188        3.71123        4.14812
C         -5.68449        2.22654        3.05096
C         -6.43931        3.46604        3.54254
O         -5.68370        4.66375        3.34160
C         -6.11279        5.49255        2.23745
C         -7.30517        6.37176        2.56966
O         -6.91450        7.33148        3.52782
C         -7.96880        8.22875        3.86190
C         -3.05427       -0.98607        5.62100
C         -3.43228       -1.16008        7.13315
N         -4.78222       -0.62828        7.33323
N         -3.18762       -2.57906        7.42079
N         -2.53320       -0.36479        7.97830
C          3.63461        2.74664        1.03299
C          4.80840        3.05768        1.97271
C          5.83299        1.91757        1.99405
C          7.02295        2.20569        2.91213
H          3.99408        9.38652       -0.48229
H          4.99390        8.41021        0.61092
H          3.37560        8.93342        1.11821
H          3.95601        6.98754       -1.20864
H          2.34779        7.50589       -0.70388
H          2.68461        6.44864        1.54143
H          4.31626        5.94761        1.06865
H          3.35166        4.52007       -0.75752
H          1.71657        5.10003       -0.34518
H         -0.87328        2.43917        3.05827
H         -0.05747        3.55330        4.18261
H          0.63010        1.58713        5.62795
H         -0.22050        0.47936        4.54816
H         -1.53664        2.80786        6.09805
H         -1.52994        1.11847        6.64649
H         -3.96218        4.29316        3.73988
H         -2.24814        4.02137        4.06094
H         -6.36656        1.36948        2.98928
H         -5.26952        2.41056        2.04720
H         -6.66464        3.37844        4.61680
H         -7.39773        3.51781        3.00297
H         -6.34215        4.86696        1.35731
H         -5.24891        6.12782        1.99874
H         -8.15789        5.76470        2.94125
H         -7.64185        6.85655        1.62948
H         -7.56485        8.93482        4.59640
H         -8.82800        7.69480        4.30666
H         -8.31748        8.78787        2.97516
H         -1.97253       -1.14431        5.53422
H         -3.54856       -1.77532        5.03710
H         -5.41783       -0.93665        6.59601
H         -5.16111       -0.96284        8.22135
H         -3.77877       -3.18585        6.84964
H         -3.40024       -2.78022        8.39990
H         -3.05536        0.11807        8.70742
H         -1.82183       -0.96054        8.40148
H          3.99813        2.64233       -0.00050
H          3.18755        1.77563        1.29982
H          4.42342        3.23372        2.98974
H          5.30080        3.98962        1.65476
H          6.19494        1.73198        0.96871
H          5.33497        0.98687        2.31446
H          7.55921        3.11255        2.59668
H          7.74144        1.37527        2.90523
H          6.69713        2.35702        3.95176
