68

C          7.35481       12.49010        1.08554
C          7.66906       11.00917        0.86181
C          9.14443       10.66248        1.09817
C          9.45109        9.17097        0.91479
C         10.92263        8.84342        1.11076
O         11.10795        7.42952        0.90854
C         12.44979        6.98721        1.01398
C         12.89345        6.77863        2.47377
N         11.88742        6.03090        3.24399
C         11.30436        4.87205        2.85771
N         12.01914        3.81372        2.44429
C         13.43695        3.63598        2.86294
C         13.64809        3.78007        4.35298
C         12.83831        3.08301        5.26108
C         13.05288        3.19656        6.63315
C         14.08447        4.00241        7.14419
C         14.89816        4.68483        6.22721
C         14.68160        4.57944        4.85222
C         14.29813        4.13985        8.62869
C         11.36518        2.71580        1.69395
C         10.97049        3.10789        0.26293
C         10.36032        1.94541       -0.53434
C          8.97621        1.48972       -0.03390
N          8.40101        0.44294       -0.85447
C          7.62131        0.64450       -1.97678
C          7.38157       -0.58525       -2.55934
C          8.04667       -1.56632       -1.77106
C          8.67123       -0.90634       -0.73039
N          9.95910        4.80521        2.96291
H          6.29489       12.70619        0.89623
H          7.94745       13.13118        0.41656
H          7.57630       12.79583        2.11867
H          7.39188       10.72273       -0.16665
H          7.03958       10.39362        1.52722
H          9.43431       10.97893        2.11534
H          9.76920       11.25388        0.40715
H          9.14828        8.84195       -0.09188
H          8.85376        8.57969        1.63065
H         11.25014        9.13926        2.12699
H         11.55025        9.39722        0.38790
H         13.15287        7.68318        0.52086
H         12.49466        6.03013        0.47151
H         13.01336        7.73439        2.99819
H         13.87497        6.28537        2.50630
H         11.26718        6.61823        3.79286
H         14.09449        4.31992        2.30570
H         13.70697        2.62399        2.53364
H         12.03720        2.43438        4.89796
H         12.41796        2.63788        7.32346
H         15.71561        5.30824        6.59415
H         15.33742        5.11667        4.16294
H         13.93622        3.25724        9.17102
H         13.75309        5.01210        9.02192
H         15.35891        4.28270        8.87139
H         10.50978        2.32448        2.26840
H         12.08910        1.89256        1.66494
H         11.87439        3.46529       -0.25338
H         10.26935        3.95850        0.28256
H         11.04469        1.08175       -0.53419
H         10.25982        2.25410       -1.58474
H          8.27828        2.34269       -0.02782
H          9.02975        1.11027        0.99930
H          7.29417        1.64162       -2.25445
H          6.78040       -0.76034       -3.44550
H          8.05450       -2.63853       -1.93700
H          9.27306       -1.28060        0.09212
H          9.41528        5.64452        2.79837
H          9.47058        3.92071        2.91372
