81

C          3.40046        3.09011       -0.38158
C          4.15523        2.72584        0.89900
C          3.63948        1.43918        1.55240
C          4.41103        1.09512        2.83396
N          3.93028       -0.12136        3.50414
C          2.99503       -0.11384        4.48094
S          2.44711       -1.48113        5.27394
S          2.39165        1.54253        4.85572
C          1.21252        1.21776        6.18688
C         -0.17548        0.81074        5.69030
C         -1.07334        0.39897        6.87576
C         -2.40663       -0.09734        6.43898
N         -3.37764        0.75534        5.94012
C         -4.44814        0.07987        5.51017
N         -4.18379       -1.22107        5.73553
C         -2.91985       -1.37749        6.31410
C         -2.38377       -2.71705        6.57243
C         -2.50403       -3.70505        5.57887
C         -2.02926       -4.99916        5.77877
C         -1.41321       -5.31764        6.98984
C         -1.27711       -4.35893        7.99457
C         -1.76202       -3.05802        7.80133
O         -1.69736       -2.07406        8.73950
C         -1.04556       -2.35959        9.98433
C         -5.68393        0.65933        4.90433
C         -5.53908        2.15647        4.54056
O         -4.52632        2.79745        4.87912
N         -6.55080        2.73491        3.85541
C         -7.79254        2.05710        3.45526
C         -8.97779        2.32316        4.38675
C         -6.41120        4.17141        3.51868
C         -6.70593        5.12539        4.67792
C          4.54243       -1.38460        3.06395
C          5.79584       -1.74864        3.86827
C          6.40626       -3.08020        3.42006
C          7.65128       -3.46243        4.22460
H          3.78510        4.02019       -0.82090
H          2.32725        3.23379       -0.18617
H          3.49640        2.30027       -1.14125
H          4.07667        3.55493        1.62216
H          5.23025        2.61901        0.67616
H          3.71773        0.60086        0.84040
H          2.57024        1.54583        1.79519
H          4.36973        1.93420        3.54477
H          5.47670        0.93948        2.60710
H          1.18344        2.15444        6.76416
H          1.64893        0.42171        6.80950
H         -0.07024       -0.04775        5.01178
H         -0.63084        1.63608        5.12055
H         -1.20904        1.24561        7.56927
H         -0.58044       -0.39761        7.44522
H         -3.38293        1.77959        5.76206
H         -4.82264       -1.99080        5.55839
H         -2.94347       -3.43708        4.61568
H         -2.12238       -5.74418        4.98984
H         -1.02886       -6.32335        7.16164
H         -0.79792       -4.63138        8.93260
H         -1.08586       -1.42605       10.55456
H          0.00398       -2.65024        9.82720
H         -1.57367       -3.14968       10.53923
H         -6.52911        0.54447        5.60470
H         -5.94395        0.06975        4.01202
H         -7.60748        0.97870        3.37838
H         -8.02717        2.39480        2.43531
H         -8.74583        2.04101        5.42323
H         -9.84739        1.73807        4.05912
H         -9.26744        3.38134        4.38110
H         -7.09430        4.35647        2.67900
H         -5.38486        4.32499        3.16000
H         -7.72659        5.00467        5.06126
H         -6.59867        6.16108        4.32937
H         -5.99949        4.97416        5.50254
H          4.78432       -1.27255        1.99564
H          3.78514       -2.17404        3.16470
H          5.52271       -1.80287        4.93372
H          6.54503       -0.94443        3.77226
H          6.65940       -3.02872        2.34730
H          5.64709       -3.87456        3.51589
H          8.43886       -2.69985        4.13061
H          8.07233       -4.41739        3.88173
H          7.41705       -3.56634        5.29399
