72

C          0.95483       12.32747        2.98580
C          2.48282       12.26514        2.91072
C          3.05125       10.88707        3.26708
C          4.58024       10.80850        3.19948
C          5.13285        9.42358        3.55111
C          6.66127        9.32491        3.49309
C          7.18521        7.92593        3.83264
C          8.71180        7.79592        3.79758
C          9.19928        6.38413        4.13860
C         10.72295        6.23079        4.15658
C         11.17998        4.81878        4.54424
C         12.67502        4.70242        4.82718
O         13.11200        5.53059        5.93130
C         12.78502        5.02607        7.20549
C         12.91332        6.19086        8.21276
C         11.95908        7.36536        7.85799
S         12.96082        8.68763        7.06142
C         14.42400        7.91860        7.56881
N         14.26407        6.75363        8.17439
N         15.62599        8.48376        7.36920
N         16.74270        7.76739        7.82581
N         15.79433        9.72467        6.75061
C         12.68113        5.64401        9.64138
O         13.59036        5.46834       10.42449
O         11.38546        5.38436        9.82991
C         10.98706        4.88585       11.15984
C         10.60235        6.04321       12.06658
C         10.05851        5.55457       13.41663
C          9.64135        6.70819       14.33170
H          0.57804       13.32656        2.72773
H          0.59408       12.08743        3.99719
H          0.49162       11.60931        2.29275
H          2.91642       13.02223        3.58618
H          2.81392       12.54257        1.89559
H          2.61804       10.12980        2.58979
H          2.71647       10.60735        4.28189
H          5.01532       11.56096        3.88109
H          4.91657       11.08986        2.18606
H          4.69639        8.67503        2.86671
H          4.78928        9.14083        4.56199
H          7.10242       10.06217        4.18761
H          7.00996        9.61289        2.48594
H          6.74582        7.19547        3.13114
H          6.82030        7.63475        4.83378
H          9.15725        8.51947        4.50532
H          9.08482        8.08386        2.79941
H          8.76858        5.66646        3.41936
H          8.79651        6.09116        5.12540
H         11.15578        6.96276        4.86047
H         11.13955        6.49279        3.16906
H         10.93842        4.10699        3.73807
H         10.60416        4.46665        5.41815
H         13.26353        5.06307        3.97161
H         12.96515        3.65443        5.01845
H         13.46542        4.20338        7.50307
H         11.74932        4.64867        7.26466
H         11.48305        7.79507        8.74650
H         11.19008        7.05235        7.14405
H         15.06619        6.26425        8.57195
H         17.24610        8.34235        8.50747
H         17.36834        7.59420        7.03418
H         15.35241       10.47695        7.28259
H         15.46871        9.71195        5.78212
H         11.81728        4.29478       11.56669
H         10.13412        4.23023       10.94553
H          9.84017        6.65746       11.55946
H         11.48278        6.68532       12.23171
H         10.82369        4.94054       13.91881
H          9.19620        4.88996       13.24374
H         10.49084        7.36930       14.55634
H          9.25201        6.33289       15.28695
H          8.85354        7.32082       13.86999
