40

N          4.82187        2.17007        1.78257
C          4.50198        0.73764        1.81642
C          3.05708        0.54500        1.27325
C          2.03459        0.81100        2.39158
N          0.57339        0.75635        1.97320
C          0.16281       -0.52925        1.26464
C         -0.16629       -0.10699       -0.16819
C         -0.77023        1.28824        0.00683
C          0.07198        1.95464        1.09518
C         -0.69403        2.97708        1.93058
C          0.12903        3.82581        2.90646
C          1.28361        4.61983        2.30945
Br         0.81523        5.65761        0.71668
Br        -1.11989        5.01604        3.86188
N         -1.15674       -1.04572       -0.72246
O         -1.48118       -0.63802       -2.03502
O         -0.42115       -2.28425       -0.81159
O          2.86848        1.40377        0.16434
H          5.75777        2.34247        1.42255
H          4.76821        2.61090        2.69906
H          4.61890        0.28075        2.81220
H          5.17602        0.20585        1.13383
H          2.95332       -0.49316        0.91988
H          2.18628        1.80763        2.82647
H          2.15080        0.06426        3.19079
H          0.03636        0.80362        2.84719
H         -0.74474       -0.91045        1.75115
H          0.95756       -1.27357        1.35464
H          0.74525       -0.08352       -0.79476
H         -1.82286        1.18602        0.31525
H         -0.74611        1.87879       -0.91555
H          0.98328        2.37050        0.65383
H         -1.51279        2.48102        2.47785
H         -1.18011        3.65896        1.21648
H          0.54728        3.21671        3.72427
H          2.09608        3.95368        1.98635
H          1.67953        5.33674        3.03469
H         -0.65046       -0.68217       -2.56214
H         -1.12802       -2.95406       -0.85515
H          3.49220        2.15193        0.35028
