62

C          2.11477        0.70678        2.70102
C          2.97862        0.34250        1.49698
S          4.17755       -0.94902        2.02883
C          4.93728       -1.27658        0.52373
N          4.72999       -0.76951       -0.67417
N          5.61349       -1.41081       -1.52972
C          6.27894       -2.24139       -0.78767
O          5.93851       -2.24284        0.51922
N          7.28482       -3.12068       -1.20810
N          7.88352       -3.95885       -0.30365
C          8.76878       -4.60352       -1.01985
N          8.75707       -4.20703       -2.33563
C          7.79848       -3.25409       -2.46033
C          7.37713       -2.54509       -3.68932
C          6.04773       -3.08718       -4.27554
C          5.65564       -2.29087       -5.52292
C          4.26352       -2.67756       -6.02761
S          3.91879       -1.81736       -7.57761
O          3.79575       -0.39785       -7.31755
O          4.82189       -2.33272       -8.57544
O          2.44349       -2.39843       -7.92293
C          9.61714       -4.75432       -3.40783
C          8.93171       -5.85175       -4.22586
C          9.86893       -6.40639       -5.30572
C          9.22052       -7.51076       -6.14949
C         10.16159       -8.04504       -7.23498
C          9.52660       -9.16361       -8.04758
O         10.49405       -9.58152       -9.03328
C         10.16418      -10.71777       -9.72794
O          9.13553      -11.33731       -9.53791
C         11.23082      -11.04633      -10.70406
C         11.13196      -12.11891      -11.49712
H          1.41002        1.49454        2.40411
H          2.71477        1.09385        3.53543
H          1.52953       -0.15057        3.05865
H          3.55587        1.19767        1.12487
H          2.38796       -0.07328        0.67179
H          9.44071       -5.35839       -0.62380
H          8.18188       -2.62162       -4.43398
H          7.24481       -1.48042       -3.44361
H          5.26156       -2.99795       -3.51289
H          6.15494       -4.15582       -4.51670
H          6.39404       -2.45686       -6.32296
H          5.66655       -1.21463       -5.29195
H          3.47298       -2.39094       -5.32040
H          4.17646       -3.74979       -6.25367
H          1.80752       -1.66657       -7.80316
H         10.51803       -5.13508       -2.90824
H          9.93157       -3.91338       -4.04085
H          8.02054       -5.44772       -4.69491
H          8.60807       -6.65972       -3.54975
H         10.78427       -6.79932       -4.83132
H         10.19454       -5.58476       -5.96643
H          8.29847       -7.12248       -6.61515
H          8.90651       -8.33735       -5.48948
H         11.08865       -8.42332       -6.77456
H         10.45671       -7.22813       -7.91284
H          8.61091       -8.82858       -8.56170
H          9.25292      -10.02596       -7.42005
H         12.08818      -10.37332      -10.74179
H         10.26149      -12.77395      -11.43630
H         11.91075      -12.36715      -12.21722
