84

C         -1.18948       -1.50385      -11.26430
C          0.33158       -1.37747      -11.37006
C          1.07027       -1.91548      -10.14090
C          2.59408       -1.80900      -10.24869
C          3.34158       -2.42813       -9.06375
C          4.86483       -2.36734       -9.21066
C          5.62545       -3.08197       -8.08927
C          7.14291       -3.07410       -8.29512
C          7.91390       -3.89347       -7.25443
C          9.42293       -3.90742       -7.52483
C         10.18764       -4.80773       -6.57019
O         11.58992       -4.74738       -6.92424
C         12.40344       -5.57415       -6.12608
N         13.79731       -5.24375       -6.35892
C         14.63635       -5.83589       -7.23008
N         15.96630       -5.74920       -7.10520
C         16.65686       -6.34918       -8.25545
C         15.52921       -7.20801       -8.87045
N         14.28652       -6.61210       -8.28128
C         13.16712       -6.30845       -9.16837
C         13.51175       -5.13212      -10.10186
O         14.51952       -4.46331       -9.97697
O         12.54106       -4.97310      -11.00246
C         12.68262       -3.88114      -11.98278
C         13.02518       -4.44730      -13.35040
C         13.08825       -3.34761      -14.41827
C         13.39194       -3.89473      -15.81773
C         13.44671       -2.80166      -16.88622
C         15.63013       -8.69623       -8.52706
C         16.83066       -9.32329       -9.22963
O         17.43906       -8.76879      -10.12630
O         17.10348      -10.53400       -8.71736
C         18.21966      -11.28673       -9.30838
C         17.68844      -12.46226      -10.10339
H         -1.68963       -1.11981      -12.16375
H         -1.57688       -0.94180      -10.40183
H         -1.49278       -2.55376      -11.13742
H          0.60580       -0.32055      -11.52567
H          0.68506       -1.91667      -12.26508
H          0.79032       -2.97247       -9.98560
H          0.72587       -1.37636       -9.24108
H          2.88172       -0.74800      -10.35226
H          2.92499       -2.30382      -11.17912
H          3.03113       -3.48208       -8.95316
H          3.03918       -1.92328       -8.12987
H          5.18831       -1.31302       -9.26227
H          5.14927       -2.81828      -10.17797
H          5.27417       -4.12682       -8.02546
H          5.38007       -2.61852       -7.11818
H          7.51110       -2.03361       -8.28971
H          7.37003       -3.47113       -9.30025
H          7.52840       -4.92769       -7.25357
H          7.71879       -3.49144       -6.24582
H          9.82929       -2.88613       -7.45314
H          9.60919       -4.25088       -8.55563
H          9.83085       -5.85243       -6.64344
H         10.06627       -4.48065       -5.52076
H         12.25501       -6.64776       -6.34736
H         12.20018       -5.41146       -5.05227
H         14.17509       -4.46194       -5.83287
H         16.43191       -5.40782       -6.27222
H         17.50516       -6.95723       -7.92172
H         17.01243       -5.56936       -8.94127
H         15.50656       -7.07456       -9.95736
H         12.27694       -6.02196       -8.59432
H         12.91572       -7.20231       -9.75321
H         13.44922       -3.18667      -11.61644
H         11.70275       -3.38580      -11.98171
H         12.26876       -5.19730      -13.63132
H         13.99434       -4.96916      -13.29576
H         13.85694       -2.60581      -14.14116
H         12.12920       -2.80194      -14.44278
H         12.62434       -4.63905      -16.08767
H         14.35052       -4.43906      -15.79323
H         12.49138       -2.26024      -16.95136
H         13.65820       -3.22318      -17.87790
H         14.23200       -2.06446      -16.66337
H         14.72320       -9.22988       -8.85257
H         15.70887       -8.85528       -7.44109
H         18.81531      -11.61389       -8.44681
H         18.80889      -10.59862       -9.92565
H         17.06280      -13.11386       -9.47969
H         18.53320      -13.05734      -10.47678
H         17.10211      -12.12718      -10.96886
