50

C          0.35340        0.32055        0.07418
C          1.79938       -0.17948        0.01705
C          2.34436       -0.23198       -1.40165
O          3.76011       -0.48023       -1.32279
C          4.37589       -0.62624       -2.58857
C          5.83711       -0.91123       -2.32960
C          6.81886        0.04094       -2.61193
C          8.17098       -0.19168       -2.32217
C          8.52017       -1.38681       -1.73121
N          7.54789       -2.29352       -1.46303
C          6.22446       -2.12602       -1.73104
C          5.31125       -3.25399       -1.39216
C          5.15643       -4.25223       -2.56565
C          4.14557       -5.36398       -2.26448
S          2.42550       -4.79849       -2.15062
C          2.08005       -4.87609       -0.37615
S          3.26045       -5.13661        0.77222
N          0.76861       -4.70315       -0.09666
C         -0.31038       -4.57434       -1.08484
C         -1.12705       -3.31351       -0.79451
O         -1.63593       -3.30881        0.53167
C         -0.58158       -3.41169        1.48810
C          0.25931       -4.67121        1.28180
H         -0.02477        0.30228        1.10409
H         -0.32378       -0.29715       -0.53311
H          0.27269        1.35422       -0.29026
H          1.88551       -1.18215        0.46587
H          2.44780        0.48438        0.60900
H          2.17026        0.72469       -1.93026
H          1.86130       -1.03713       -1.98908
H          4.28112        0.29283       -3.19728
H          3.91101       -1.45037       -3.16654
H          6.52193        0.99085       -3.05978
H          8.93805        0.54915       -2.53843
H          9.53464       -1.66220       -1.44957
H          7.81657       -3.17069       -1.01366
H          4.32948       -2.84435       -1.12000
H          5.67493       -3.78399       -0.49868
H          6.12802       -4.72432       -2.79033
H          4.85824       -3.70981       -3.47648
H          4.36568       -5.86976       -1.31017
H          4.15364       -6.10376       -3.07628
H         -0.95520       -5.46636       -1.01140
H          0.09686       -4.53430       -2.10110
H         -1.99642       -3.26499       -1.46357
H         -0.49318       -2.42147       -0.96891
H         -1.06060       -3.43784        2.47553
H          0.06828       -2.51666        1.43359
H         -0.35518       -5.57197        1.44596
H          1.11447       -4.69761        1.96660
