73

C          2.55679       -1.03330        0.64426
C          4.05908       -0.89932        0.81341
O          4.53910        0.33219        0.18984
P          5.16745        0.28946       -1.28952
O          4.49376       -0.59574       -2.27087
C          5.13140        2.06633       -1.68849
C          3.68961        2.56613       -1.80585
C          3.49280        4.00640       -2.20702
C          4.56533        4.80259       -2.56702
C          4.39529        6.16545       -2.91471
C          5.47821        6.98330       -3.26524
N          5.31328        8.27619       -3.57832
C          4.06418        8.85158       -3.57756
C          2.95866        8.11376       -3.24479
C          3.08141        6.74378       -2.89640
C          1.99777        5.91963       -2.53599
C          2.16633        4.58290       -2.19977
C          0.94259        3.78232       -1.79723
C          0.61578        2.54771       -2.63005
C          0.58463        1.29904       -1.99149
C          0.28912        0.12943       -2.68849
C          0.01286        0.20049       -4.05419
C          0.01731        1.43949       -4.69448
C          0.31027        2.62795       -4.00795
C          0.26175        3.93752       -4.75720
C          6.51271        9.12912       -3.89390
C          6.29094       10.07858       -5.03918
C          6.25017       11.45407       -4.76746
C          6.06657       12.38148       -5.79285
C          5.91993       11.92689       -7.10403
C          5.96294       10.55836       -7.38067
C          6.14837        9.60983       -6.36632
C          6.18929        8.14058       -6.70459
O          6.73172       -0.00734       -1.06666
C          7.40890       -1.09495       -1.77167
C          7.50364       -2.33305       -0.90061
H          2.20124       -1.93280        1.16630
H          2.29484       -1.12171       -0.41784
H          2.03756       -0.16506        1.07329
H          4.58609       -1.76217        0.37991
H          4.34777       -0.81562        1.86945
H          5.67639        2.15265       -2.64140
H          5.70389        2.60551       -0.91869
H          3.17938        2.40417       -0.84206
H          3.14251        1.92660       -2.51749
H          5.57339        4.38737       -2.57225
H          6.50006        6.60489       -3.29561
H          4.03148        9.89932       -3.86676
H          1.98154        8.59641       -3.25083
H          0.99373        6.34780       -2.52501
H          0.08020        4.46738       -1.79201
H          1.07470        3.45724       -0.75195
H          0.80688        1.24433       -0.92367
H          0.27807       -0.82894       -2.16921
H         -0.21432       -0.70395       -4.61909
H         -0.21987        1.49425       -5.75896
H         -0.16572        3.79160       -5.75647
H          1.26091        4.37991       -4.88907
H         -0.35854        4.68538       -4.23952
H          7.33400        8.42672       -4.08934
H          6.75480        9.68484       -2.97723
H          6.37559       11.80035       -3.73900
H          6.04411       13.44812       -5.57002
H          5.77939       12.63883       -7.91788
H          5.85882       10.21464       -8.41132
H          6.24804        7.99166       -7.78850
H          5.28935        7.61201       -6.35278
H          7.05942        7.63531       -6.25786
H          8.40343       -0.69538       -2.01086
H          6.86768       -1.30213       -2.70529
H          7.98285       -2.10533        0.06076
H          8.10432       -3.09893       -1.41175
H          6.50916       -2.75946       -0.71123
