64

C          1.19511       -0.54271       -0.65236
C          2.70698       -0.36847       -0.48608
C          3.12249        1.07780       -0.19346
C          4.63562        1.26700       -0.04429
C          5.04742        2.71300        0.25206
C          6.56265        2.90895        0.37099
C          6.97357        4.35715        0.66013
C          8.49148        4.56074        0.71138
C          8.90944        6.01225        0.97860
C         10.43137        6.20498        0.92179
C         10.85364        7.64192        1.16755
O         12.29342        7.71840        0.97299
C         12.83784        8.99444        1.18664
P         14.64635        8.68625        1.15313
C         15.06315        7.73075       -0.33570
C         16.44358        7.03411       -0.24292
C         16.67981        6.13832       -1.40951
C         17.65516        6.25910       -2.31864
F         18.55495        7.23979       -2.29004
F         17.84672        5.43454       -3.32747
F         15.80964        5.10346       -1.52930
C         15.66784       10.20084        1.18150
C         15.45691       11.26264        2.28070
C         16.06161       10.95010        3.65450
C         15.28344        9.90485        4.43546
O         14.33768        9.29551        3.96958
O         15.67880        9.64772        5.69683
H          0.92957       -1.58902       -0.85690
H          0.81165        0.06579       -1.48499
H          0.65510       -0.23535        0.25576
H          3.22057       -0.71565       -1.39878
H          3.06649       -1.02071        0.32791
H          2.61796        1.42165        0.72693
H          2.75122        1.73281       -1.00163
H          5.13708        0.92765       -0.96798
H          5.00911        0.60853        0.75972
H          4.56018        3.04770        1.18472
H          4.65809        3.37217       -0.54392
H          7.04579        2.57426       -0.56405
H          6.95651        2.25090        1.16539
H          6.52485        4.68229        1.61500
H          6.54583        5.01729       -0.11490
H          8.93244        4.22887       -0.24492
H          8.92579        3.90680        1.48736
H          8.52711        6.33028        1.96358
H          8.42844        6.67140        0.23547
H         10.80397        5.89620       -0.06840
H         10.92314        5.55571        1.66365
H         10.61558        7.97011        2.19511
H         10.36420        8.33326        0.45764
H         12.59414        9.42441        2.17473
H         12.57990        9.72831        0.39509
H         14.93774        7.84667        2.24494
H         15.00644        8.39885       -1.20843
H         14.25802        6.98670       -0.43479
H         16.49013        6.42843        0.67908
H         17.26232        7.76466       -0.19619
H         15.48243       10.65425        0.19396
H         16.71449        9.85480        1.16227
H         14.38810       11.49214        2.39378
H         15.92988       12.18210        1.90854
H         16.09677       11.87526        4.25244
H         17.11013       10.61708        3.56292
H         16.42840       10.21227        5.96023
