84

C          0.86519       -0.97816       -0.03693
C          2.37934       -0.75787       -0.03594
C          2.86095        0.15691       -1.16683
C          4.37397        0.39357       -1.15803
C          4.86719        1.29298       -2.29587
C          6.37810        1.54169       -2.26136
C          6.89016        2.40990       -3.41524
C          8.39982        2.66118       -3.35539
C          8.94318        3.46722       -4.53972
C         10.45708        3.68779       -4.46483
C         11.03842        4.40381       -5.68894
C         12.56256        4.54543       -5.61164
C         13.15338        5.13008       -6.89749
N         14.63072        5.13271       -6.87690
C         15.38397        3.96961       -6.98857
C         16.69868        4.30946       -6.83929
N         16.70673        5.67663       -6.63913
C         15.45328        6.17858       -6.64986
C         15.10318        7.62606       -6.47549
C         15.62268        8.15568       -5.12852
O         15.06941        7.33915       -4.10444
C         15.62270        8.48171       -7.64825
C         17.97354        3.52781       -6.84792
O         18.82392        4.13581       -5.89353
C         20.07847        3.44087       -5.72153
C         20.79165        4.02589       -4.51498
C         22.10496        3.30178       -4.19454
C         22.75592        3.80490       -2.90135
C         24.04158        3.05922       -2.53343
C         24.65770        3.52273       -1.20953
C         25.92980        2.75845       -0.83807
H          0.55393       -1.64222        0.78115
H          0.52937       -1.43291       -0.98079
H          0.32465       -0.02738        0.08213
H          2.89409       -1.73041       -0.11478
H          2.68927       -0.32948        0.93224
H          2.33888        1.12759       -1.09704
H          2.56314       -0.27734       -2.13760
H          4.89457       -0.57885       -1.21301
H          4.66600        0.83793       -0.19018
H          4.33698        2.26057       -2.25406
H          4.59340        0.83893       -3.26443
H          6.90657        0.57213       -2.27715
H          6.64640        2.01612       -1.30103
H          6.35651        3.37627       -3.41413
H          6.63849        1.92487       -4.37472
H          8.92604        1.69131       -3.31021
H          8.64582        3.18268       -2.41387
H          8.42913        4.44241       -4.59263
H          8.69808        2.94155       -5.47920
H         10.95742        2.70983       -4.35307
H         10.70164        4.25996       -3.55349
H         10.57393        5.39879       -5.79571
H         10.76899        3.83913       -6.59853
H         13.00938        3.55359       -5.43279
H         12.85261        5.17932       -4.75886
H         12.81236        6.15855       -7.06666
H         12.85132        4.53885       -7.77398
H         14.91930        3.00675       -7.16301
H         17.55381        6.19360       -6.41447
H         14.00652        7.69341       -6.44082
H         15.31099        9.20963       -5.03182
H         16.73046        8.13578       -5.11238
H         15.31589        7.70121       -3.23909
H         16.72015        8.46670       -7.70567
H         15.30683        9.52445       -7.51673
H         15.22713        8.12567       -8.60743
H         18.43067        3.54188       -7.85923
H         17.75801        2.47154       -6.59954
H         20.68321        3.53988       -6.64247
H         19.87267        2.36549       -5.56462
H         20.11405        3.96066       -3.64830
H         20.98501        5.09703       -4.68890
H         22.81141        3.41752       -5.03395
H         21.91262        2.21884       -4.10198
H         22.03156        3.70688       -2.07367
H         22.96938        4.88420       -2.99245
H         24.78209        3.17988       -3.34339
H         23.83027        1.97696       -2.47451
H         23.91091        3.40838       -0.40552
H         24.87723        4.60212       -1.26822
H         25.73343        1.67996       -0.74573
H         26.34171        3.10446        0.11953
H         26.71028        2.88823       -1.60234
