60

C          5.35687       -2.03326        0.21317
O          4.10244       -1.63202        0.78865
C          4.11574       -0.85686        1.90503
C          5.28525       -0.30182        2.44642
C          5.22264        0.53885        3.55851
C          4.00043        0.83795        4.16185
C          2.84053        0.27006        3.64255
C          2.86655       -0.57262        2.52010
C          1.55081       -1.13303        2.08657
O          1.57534       -2.43067        1.62300
C          0.31842       -2.74116        0.95425
C         -0.32822       -1.36479        0.67598
N          0.78499       -0.37917        0.88621
C          1.58538       -0.09364       -0.36512
C          2.43724        1.17417       -0.28062
C          1.74924        2.52851       -0.08129
C          1.24456        3.32872       -1.34143
C          0.11335        2.74859       -2.27664
C         -1.30591        2.45871       -1.66322
F         -1.75210        3.48667       -0.93724
F         -2.16579        2.20026       -2.65330
F         -1.25331        1.35385       -0.86057
F         -0.05909        3.64810       -3.26718
F          0.56493        1.57799       -2.82668
F          0.83570        4.54699       -0.91779
F          2.33359        3.48616       -2.14826
F          0.67566        2.41924        0.80435
F          2.64691        3.36180        0.51341
C         -0.55281       -3.67896        1.77742
C         -0.08340       -5.14390        1.63468
O          0.72944       -5.42110        0.76144
C         -0.66166       -6.17859        2.53141
C         -0.23884       -7.51038        2.35309
C         -0.75657       -8.52529        3.15068
C         -1.70423       -8.22567        4.13729
C         -2.13198       -6.90760        4.32350
C         -1.61402       -5.88738        3.52599
H          5.91977       -1.16694       -0.16666
H          5.09418       -2.69466       -0.61811
H          5.96542       -2.58744        0.94205
H          6.25171       -0.51935        1.99664
H          6.14616        0.96185        3.95498
H          3.95322        1.48892        5.03333
H          1.88139        0.46941        4.12636
H          0.81987       -0.97456        2.90531
H          0.61086       -3.25634        0.02863
H         -1.11932       -1.12323        1.39723
H         -0.73303       -1.27425       -0.33691
H          0.41198        0.51401        1.23451
H          0.86767       -0.04912       -1.18977
H          2.24743       -0.95386       -0.52005
H          3.03451        1.23225       -1.20114
H          3.15342        1.09789        0.54711
H         -1.59718       -3.62582        1.42238
H         -0.56591       -3.36410        2.83203
H          0.49634       -7.72178        1.57660
H         -0.42595       -9.55410        3.00590
H         -2.11103       -9.02201        4.76159
H         -2.87021       -6.67656        5.09161
H         -1.96288       -4.86654        3.68559
