43

C          0.84999       -0.50899        0.20327
C          2.37003       -0.43391        0.04803
C          3.01944        0.59404        0.98166
C          4.54498        0.64457        0.85611
C          5.18940        1.68747        1.77798
C          6.72280        1.66356        1.66396
C          7.43972        2.75252        2.46297
I          9.62827        2.64079        2.02868
C          7.21794        2.72403        3.98417
S          7.25213        4.46444        4.57524
C          6.99924        5.02524        2.99314
N          7.05410        4.09629        2.06220
C          6.82641        6.44614        2.47314
O          6.81281        6.61576        1.27604
C          6.83275        7.64343        3.46056
C          5.78722        8.79529        3.15770
C          4.32417        8.35009        2.76199
C          3.80825        7.10138        3.53121
O          4.40038        6.04427        3.42701
O          2.71430        7.25188        4.26134
F          3.49518        9.41545        2.98449
F          4.28924        8.05316        1.44022
F          5.69827        9.53651        4.29103
F          6.26827        9.56291        2.16049
F          6.63687        7.20665        4.73935
F          8.07796        8.18501        3.39505
H          0.41671       -1.25297       -0.47809
H          0.37511        0.45837       -0.01688
H          0.56627       -0.79311        1.22724
H          2.62464       -0.18640       -0.99597
H          2.81100       -1.42632        0.23967
H          2.74703        0.36082        2.02602
H          2.59904        1.59373        0.77435
H          4.82453        0.86159       -0.18920
H          4.96551       -0.35021        1.08251
H          4.87568        1.48974        2.81664
H          4.80242        2.69022        1.52767
H          7.02125        1.76351        0.60856
H          7.12016        0.69281        1.99508
H          7.97445        2.14360        4.52087
H          6.21682        2.33618        4.22749
H          6.99247        4.38640        1.07937
H          2.38555        8.17374        4.19732
