67

C          3.89568       -1.81930        3.15980
C          4.83335       -1.90091        1.95271
C          4.29972       -1.08501        0.76958
N          5.17878       -1.13918       -0.40133
N          6.16547       -0.19000       -0.57648
C          6.81028       -0.54585       -1.65881
N          6.26230       -1.71830       -2.17367
C          5.23398       -2.07832       -1.36118
N          4.46230       -3.17726       -1.48821
C          4.50341       -4.00165       -2.69078
C          3.83939       -3.35128       -3.91495
C          4.32526       -3.90333       -5.23800
Br         6.21668       -3.35270       -5.49445
Br         1.88069       -3.60255       -3.81241
C          7.99376        0.13462       -2.24221
C          9.32132       -0.54425       -1.82884
C         10.50936        0.13008       -2.52039
S         12.11046       -0.34109       -1.82346
C         12.26647        0.83697       -0.46142
S         11.06942        1.93962       -0.08368
N         13.44613        0.73487        0.19361
C         14.47350       -0.25714       -0.15715
C         14.38233       -1.57776        0.62173
C         15.41926       -2.59803        0.13930
C         15.35542       -3.92139        0.90565
C         13.75017        1.65530        1.30433
C         13.22533        1.20776        2.67441
C         13.45017        2.29067        3.73513
C         13.00222        1.86300        5.13448
H          4.29553       -2.40364        3.99745
H          2.89607       -2.21468        2.92759
H          3.77512       -0.78307        3.50570
H          4.96724       -2.95081        1.64471
H          5.83133       -1.51832        2.21424
H          4.21471       -0.02035        1.02253
H          3.29751       -1.42323        0.45857
H          6.51571       -2.17345       -3.05541
H          3.63188       -3.22895       -0.90589
H          4.02665       -4.96135       -2.45910
H          5.55797       -4.22069       -2.92331
H          3.96208       -2.26116       -3.89834
H          3.78545       -3.47914       -6.08801
H          4.31784       -4.99754       -5.28674
H          7.99379        1.17357       -1.88597
H          7.89404        0.15985       -3.33969
H          9.30307       -1.61910       -2.06933
H          9.43303       -0.44543       -0.74036
H         10.43942        1.22473       -2.43013
H         10.57374       -0.14357       -3.58398
H         15.45030        0.21798        0.01764
H         14.41704       -0.45193       -1.23918
H         13.36794       -1.99283        0.50967
H         14.52543       -1.38405        1.69603
H         16.42973       -2.16620        0.23472
H         15.27053       -2.78577       -0.93745
H         15.53298       -3.77109        1.98060
H         16.11084       -4.63038        0.54138
H         14.37073       -4.39935        0.79596
H         13.31522        2.63063        1.04566
H         14.84470        1.76242        1.33156
H         13.72086        0.27347        2.98292
H         12.14951        0.98921        2.58904
H         12.90869        3.20253        3.43390
H         14.51825        2.56618        3.76004
H         11.93144        1.61157        5.15092
H         13.16639        2.66374        5.86813
H         13.55678        0.97798        5.47974
