78

O          0.98446        0.02339        1.12659
C          0.07301       -0.33116        0.14980
C         -0.82088        0.59500       -0.39258
C         -1.72303        0.19363       -1.37900
C         -1.72624       -1.12807       -1.82842
C         -0.82404       -2.04208       -1.27949
C          0.08460       -1.67065       -0.28194
C          1.02537       -2.67098        0.34176
N          2.43486       -2.39863       -0.00396
C          3.36424       -3.25686        0.71092
C          4.80065       -2.98999        0.22813
C          5.76430       -3.95665        0.90544
N          7.26899       -3.76358        0.62674
C          7.44467       -3.85663       -0.89231
C          8.83541       -4.03310       -1.49648
C          8.69545       -4.02475       -3.02784
C         10.04231       -4.22858       -3.72568
S          9.81172       -4.16426       -5.51675
O          9.09099       -5.34610       -5.94416
O          9.36414       -2.83752       -5.85556
O         11.34887       -4.30106       -6.01583
C          7.68558       -2.40431        1.19194
C          9.17619       -2.23629        1.45550
C          9.73250       -3.36632        2.32140
C          9.46972       -4.72999        1.67074
C          7.97575       -4.90122        1.37649
C          9.91939       -5.92159        2.54042
C         11.44015       -6.02858        2.70330
C         11.87000       -7.22536        3.57267
C         13.37317       -7.32845        3.69558
C         14.10747       -8.15916        2.83685
C         15.50092       -8.22094        2.91850
C         16.18177       -7.44810        3.86261
C         15.46130       -6.61799        4.72645
C         14.06855       -6.56095        4.64270
H          0.82598        0.94855        1.37524
H         -0.81216        1.62960       -0.03922
H         -2.42148        0.92066       -1.79441
H         -2.42920       -1.44470       -2.59822
H         -0.82488       -3.07810       -1.62436
H          0.77405       -3.67784       -0.02572
H          0.87056       -2.67827        1.44176
H          2.62562       -1.42050        0.22696
H          3.09319       -4.30521        0.49498
H          3.31614       -3.14561        1.81900
H          5.05994       -1.94512        0.46015
H          4.80869       -3.09637       -0.86489
H          5.54659       -4.99252        0.60819
H          5.66776       -3.89341        1.99782
H          6.98182       -2.94548       -1.29136
H          6.81567       -4.70520       -1.19718
H          9.28434       -4.98466       -1.17843
H          9.51736       -3.22890       -1.19059
H          8.26168       -3.06849       -3.35865
H          8.00011       -4.81760       -3.34590
H         10.49011       -5.20646       -3.50029
H         10.76437       -3.43581       -3.48447
H         11.43378       -5.16428       -6.46543
H          7.13539       -2.30631        2.13877
H          7.30439       -1.64680        0.49767
H          9.29168       -1.26578        1.96024
H          9.74035       -2.15395        0.51634
H          9.26553       -3.33899        3.32193
H         10.80924       -3.22105        2.47558
H         10.03956       -4.77665        0.73020
H          7.43712       -4.99163        2.33150
H          7.77719       -5.81277        0.79594
H          9.54474       -6.85811        2.09197
H          9.44100       -5.84621        3.53307
H         11.84670       -5.10874        3.15213
H         11.91278       -6.11955        1.71074
H         11.46938       -8.15581        3.13925
H         11.41926       -7.12553        4.57366
H         13.58052       -8.77419        2.10309
H         16.05525       -8.87942        2.24833
H         17.26888       -7.49824        3.93098
H         15.98540       -6.01949        5.47295
H         13.51202       -5.91887        5.33023
