55

C          0.13125        3.89001       -5.54969
C          1.64494        4.10522       -5.47995
C          2.44708        2.79947       -5.54748
C          3.96237        3.03197       -5.50750
C          4.76066        1.74070       -5.52792
O          6.16298        2.07687       -5.50216
C          7.00958        0.95958       -5.46060
C          8.43371        1.45182       -5.40683
C          8.74798        2.82194       -5.45585
C         10.07991        3.22218       -5.39205
C         10.48157        4.67607       -5.42605
C         11.96065        4.96845       -5.21409
O         12.65986        4.46553       -6.36265
C         14.07198        4.57646       -6.32277
C         14.72022        3.26780       -5.86383
F         14.35756        2.22493       -6.66288
F         16.06156        3.35855       -5.87490
F         14.33128        2.92234       -4.59501
C         11.02411        2.19367       -5.28411
N         10.62674        0.91174       -5.25345
N          9.36503        0.50147       -5.30052
C         11.62197       -0.14702       -5.03593
C         12.20518       -0.03136       -3.61066
O         12.01880        0.92612       -2.88975
O         12.92818       -1.11683       -3.35461
C         13.63663       -1.15301       -2.05658
C         14.98828       -0.47620       -2.16114
H         -0.41028        4.84188       -5.46965
H         -0.21957        3.23884       -4.73569
H         -0.16304        3.42048       -6.49962
H          1.90079        4.63598       -4.54749
H          1.96190        4.76869       -6.30215
H          2.17945        2.25278       -6.46836
H          2.14866        2.14696       -4.70858
H          4.22993        3.59540       -4.59874
H          4.26782        3.65137       -6.36643
H          4.54576        1.14713       -6.43651
H          4.52272        1.11199       -4.64913
H          6.89137        0.30723       -6.35070
H          6.82197        0.32183       -4.57282
H          7.92853        3.53626       -5.53756
H          9.89675        5.21366       -4.66341
H         10.16995        5.09511       -6.39722
H         12.32836        4.50385       -4.28174
H         12.11083        6.05814       -5.12920
H         14.41891        5.38827       -5.66350
H         14.42496        4.77420       -7.34483
H         12.09400        2.36296       -5.23159
H         12.43429       -0.03966       -5.76816
H         11.12162       -1.10885       -5.18425
H         13.72197       -2.22565       -1.85080
H         12.98906       -0.68135       -1.30730
H         15.60689       -0.94144       -2.93903
H         15.51410       -0.58174       -1.20226
H         14.88769        0.59597       -2.37212
