70

N          1.19938        1.06156       -0.49354
C          2.57511        0.64357       -0.23804
C          2.73697        0.29483        1.25195
C          4.15780       -0.17975        1.52910
N          4.47059       -0.62466        2.95329
C          3.92657        0.29698        4.03195
C          4.60108        0.01308        5.38098
C          4.42927       -1.47669        5.73272
C          4.93710       -2.38446        4.60940
C          4.24411       -2.12768        3.26504
C          2.76891       -2.54147        3.13215
C          2.46109       -3.95704        3.65949
O          2.35811       -3.81433        5.07661
C          2.53745       -5.00888        5.87279
C          3.37248       -4.62941        7.06989
C          4.73215       -4.96556        7.12771
C          5.53466       -4.51314        8.17892
C          4.98087       -3.71924        9.18741
C          3.62074       -3.39336        9.14807
C          2.82195       -3.84856        8.09744
C          1.18119       -4.52143        3.04246
C          6.06095        0.51843        5.36099
C          6.80493        0.26218        6.67524
C          8.20196        0.87594        6.78808
C          9.43438        0.02533        6.29151
C          9.61340       -0.35633        4.77064
C          9.71208        0.78753        3.69520
F         10.58303        1.73149        4.05845
F         10.10489        0.24439        2.52917
F          8.49866        1.36031        3.49294
F         10.75491       -1.07462        4.68944
F          8.57290       -1.17427        4.39508
F         10.56352        0.67189        6.66647
F          9.37928       -1.17178        6.95089
F          8.26563        2.10396        6.17646
F          8.46340        1.07850        8.11893
H          0.99370        1.04424       -1.49167
H          1.03628        2.01844       -0.17803
H          3.34483        1.38867       -0.52716
H          2.77070       -0.25654       -0.84185
H          1.98706       -0.46396        1.50647
H          2.50617        1.18976        1.85002
H          4.87289        0.62855        1.31522
H          4.42534       -1.03340        0.88932
H          5.49369       -0.53307        3.02947
H          2.84290        0.14373        4.07879
H          4.11834        1.32350        3.69021
H          4.04826        0.61281        6.12250
H          3.36936       -1.69348        5.91971
H          4.94620       -1.72653        6.66771
H          4.79058       -3.43306        4.88436
H          6.02459       -2.26225        4.46912
H          4.81558       -2.63530        2.47175
H          2.48243       -2.49855        2.07288
H          2.09958       -1.85956        3.67685
H          3.30528       -4.63804        3.42210
H          3.04698       -5.78585        5.27821
H          1.54933       -5.39725        6.17000
H          5.16595       -5.59750        6.34874
H          6.58866       -4.79168        8.21832
H          5.60324       -3.36990       10.01200
H          3.18082       -2.79086        9.94374
H          1.76089       -3.59237        8.06985
H          0.33082       -3.85253        3.23550
H          0.94615       -5.50399        3.47156
H          1.28865       -4.65118        1.95631
H          6.05582        1.59858        5.15511
H          6.62248        0.05586        4.53584
H          6.89730       -0.81063        6.89153
H          6.23750        0.70279        7.50917
