79

C          1.09730       -0.80675       -0.21432
C          2.59066       -0.80728        0.11797
C          3.03622        0.42990        0.90397
C          4.52876        0.43389        1.24494
C          4.97711        1.66134        2.04329
C          6.47150        1.65553        2.37795
C          6.93243        2.87234        3.18600
C          8.43417        2.86200        3.48555
C          8.91943        4.07160        4.29042
C         10.43230        4.06027        4.52820
C         10.95191        5.26874        5.31321
C         12.47749        5.26535        5.45629
C         13.03132        6.47426        6.21777
C         14.56241        6.48164        6.23740
C         15.12977        7.69644        7.01974
C         16.61038        7.75037        6.95760
N         17.45461        7.27118        7.88785
C         18.75684        7.43342        7.44678
N         18.75747        8.00296        6.26508
N         17.42812        8.19736        5.97070
C         16.99396        8.83205        4.71770
O         15.82407        9.05743        4.53178
O         18.04393        9.04352        3.96104
C         17.80309        9.70039        2.65217
C         18.22834       11.15498        2.71475
C         18.11652       11.82597        1.33755
C         18.56730       13.28767        1.36765
C         19.95637        7.04129        8.25829
C         19.74856        5.68158        8.94369
O         18.58154        5.76554        9.78553
C         21.24196        7.05647        7.42449
H          0.80682       -1.70885       -0.77009
H          0.82675        0.06456       -0.82888
H          0.48690       -0.76812        0.70035
H          3.17706       -0.87493       -0.81406
H          2.83966       -1.71191        0.69813
H          2.44751        0.49926        1.83572
H          2.79076        1.33718        0.32385
H          5.11521        0.37330        0.31082
H          4.77366       -0.47993        1.81494
H          4.39272        1.72254        2.97797
H          4.73445        2.57595        1.47423
H          7.05249        1.60157        1.44030
H          6.71545        0.73486        2.93694
H          6.36827        2.91814        4.13396
H          6.67691        3.79494        2.63570
H          8.99136        2.81495        2.53327
H          8.69051        1.93676        4.03079
H          8.39237        4.10484        5.25979
H          8.64089        4.99951        3.76059
H         10.94812        4.01610        3.55283
H         10.71144        3.13338        5.05938
H         10.48425        5.29184        6.31240
H         10.63727        6.19752        4.80649
H         12.93024        5.23557        4.44986
H         12.79650        4.33748        5.96187
H         12.64226        6.47703        7.25005
H         12.67308        7.40503        5.74691
H         14.93894        6.51460        5.20405
H         14.93986        5.55045        6.69010
H         14.83531        7.63627        8.07762
H         14.72186        8.62373        6.59875
H         17.23826        6.78083        8.76537
H         16.74275        9.57965        2.39892
H         18.42377        9.11863        1.95957
H         19.26775       11.21257        3.07370
H         17.59971       11.69161        3.44349
H         17.07517       11.76544        0.98220
H         18.72609       11.26630        0.60924
H         17.95339       13.88027        2.06099
H         18.48313       13.74555        0.37375
H         19.61529       13.37448        1.68798
H         20.03956        7.79092        9.06688
H         20.64281        5.45983        9.54564
H         19.62940        4.88503        8.18831
H         18.51987        4.96340       10.32714
H         21.20700        6.30896        6.62090
H         22.10234        6.83668        8.06824
H         21.40053        8.03790        6.96421
