77

C          1.15425       -0.32933        0.97685
C          2.63970        0.01158        0.83490
C          2.97769        0.73527       -0.47366
C          4.46504        1.07189       -0.61958
C          4.82772        1.71866       -1.96065
C          6.32091        2.03665       -2.09274
C          6.73368        2.53248       -3.48267
C          8.23226        2.83152       -3.59108
C          8.70196        3.16614       -5.01158
C         10.21111        3.42927       -5.07757
C         10.73314        3.59398       -6.49397
O         12.15652        3.81451       -6.41780
C         12.81738        3.78327       -7.65436
C         14.30939        3.66101       -7.36877
C         15.23295        4.07529       -8.53164
C         14.89424        3.39459       -9.86476
C         15.90221        3.68750      -10.97535
O         15.39830        3.03194      -12.12841
C         16.33441        2.80044      -13.15901
C         15.90230        1.55886      -13.94727
C         16.20591        0.14544      -13.32087
C         15.62587       -0.29560      -11.92561
C         14.08000       -0.40495      -11.77429
F         13.83463       -0.95563      -10.54209
F         13.49651        0.82252      -11.79291
F         16.11762       -1.54448      -11.69950
F         16.12675        0.52099      -10.94006
F         15.77486       -0.79215      -14.21160
F         17.56180        0.04668      -13.20337
F         14.57132        1.61290      -14.24393
F         16.59429        1.56785      -15.12846
O         16.61004        3.93815       -8.15022
C         16.97514        2.60518       -7.82342
C         16.17484        2.09278       -6.64047
N         14.67249        2.18813       -6.96754
C         13.92242        1.64465       -5.91866
C         13.42383        1.08424       -4.97860
H          0.94912       -0.85313        1.92055
H          0.81244       -0.97768        0.15619
H          0.53249        0.57830        0.95971
H          3.23755       -0.91367        0.89899
H          2.95854        0.63491        1.68760
H          2.38193        1.66241       -0.54417
H          2.66026        0.10876       -1.32626
H          5.05837        0.14832       -0.49585
H          4.77226        1.73850        0.20549
H          4.24001        2.64286       -2.09896
H          4.52558        1.04353       -2.78081
H          6.90348        1.12925       -1.85198
H          6.60559        2.78568       -1.33314
H          6.15671        3.43649       -3.74366
H          6.45854        1.77078       -4.23337
H          8.79973        1.95639       -3.22671
H          8.49246        3.66205       -2.91234
H          8.15259        4.04432       -5.39060
H          8.44130        2.32935       -5.68298
H         10.75141        2.59098       -4.60705
H         10.46511        4.32968       -4.49595
H         10.25320        4.44648       -7.00924
H         10.54086        2.68354       -7.09397
H         12.65494        4.71145       -8.24064
H         12.46006        2.94420       -8.28898
H         14.55256        4.24341       -6.46924
H         15.09998        5.16310       -8.63919
H         13.90419        3.73918      -10.19838
H         14.81254        2.29814       -9.77908
H         16.90471        3.30274      -10.71766
H         15.99920        4.77733      -11.14261
H         17.35333        2.63350      -12.76846
H         16.36979        3.63544      -13.88101
H         13.63777       -1.04446      -12.55290
H         18.03703        2.62912       -7.54441
H         16.87546        1.92300       -8.68841
H         16.31555        2.70488       -5.74124
H         16.37970        1.04003       -6.41004
H         14.50435        1.61689       -7.81634
H         12.93086        0.61938       -4.14757
