58

C          0.51926        2.72823        4.41371
C          1.97402        3.20302        4.38233
C          2.85345        2.38854        3.42739
C          4.30467        2.87738        3.36148
C          5.18494        1.98731        2.47845
C          6.60960        2.50941        2.26218
N          7.33907        2.76229        3.51288
N          7.58042        4.06647        3.87700
C          8.13455        3.99325        5.05073
N          8.27612        2.68727        5.47317
C          7.75622        1.89639        4.46834
N          7.66373        0.56663        4.55764
C          7.69453       -0.42783        3.47314
C          9.13017       -0.64452        2.98460
O          9.63168        0.62306        2.55509
C          7.05760       -1.72043        3.97801
C          9.07244        2.24613        6.62359
C          8.24225        1.46802        7.66090
O          7.64780        0.44632        7.26538
N          8.23239        1.87127        8.94928
C          8.83387        3.12580        9.44150
C          7.99583        4.37890        9.17742
C          7.51798        1.02204        9.92749
C          6.10949        1.51359       10.26303
H         -0.08021        3.31878        5.11917
H          0.44734        1.67367        4.71809
H          0.04890        2.81885        3.42385
H          2.40194        3.15380        5.39845
H          2.00878        4.26612        4.09043
H          2.41582        2.41431        2.41438
H          2.83731        1.32765        3.73461
H          4.72033        2.91549        4.38371
H          4.33057        3.91433        2.98588
H          4.73902        1.89344        1.47502
H          5.20667        0.96579        2.89183
H          6.59567        3.48671        1.76492
H          7.21474        1.82993        1.64598
H          8.45880        4.84980        5.63250
H          7.72123        0.23615        5.54566
H          7.11006       -0.04575        2.62446
H          9.11265       -1.37293        2.15549
H          9.74443       -1.06309        3.80305
H         10.50385        0.49767        2.15168
H          7.59551       -2.11541        4.85204
H          7.07671       -2.48722        3.19373
H          6.01266       -1.55197        4.26600
H          9.57162        3.13637        7.01544
H          9.85018        1.55558        6.26099
H          9.84796        3.23427        9.03107
H          8.96969        2.99139       10.52235
H          7.83714        4.55239        8.10419
H          8.50487        5.26042        9.58933
H          7.00789        4.30675        9.64702
H          8.14439        0.98079       10.83029
H          7.47433        0.01593        9.49624
H          6.11780        2.48517       10.77432
H          5.62432        0.79268       10.93450
H          5.49671        1.59688        9.35586
