80

C          1.85797        0.38690       -0.51963
C          3.26610       -0.05861       -0.92123
C          3.78752       -1.24212       -0.09823
C          5.19661       -1.69295       -0.49510
C          5.72083       -2.87648        0.32532
C          7.11766       -3.34003       -0.10040
C          7.65474       -4.52240        0.71301
C          9.01751       -5.02157        0.21867
C          9.57794       -6.17978        1.05088
C         10.88864       -6.74556        0.49794
C         11.52412       -7.87868        1.34886
N         12.80725       -7.31797        1.83225
C         13.02760       -6.12561        1.24827
N         14.11353       -5.35660        1.37595
C         15.47291       -5.73268        1.77177
C         16.43267       -4.77863        1.06130
O         15.94417       -3.46926        1.29778
C         16.68713       -2.43267        0.62710
C         16.05214       -1.09380        0.96238
C         16.75430        0.08933        0.28491
C         16.12700        1.44124        0.64714
C         16.80970        2.62906       -0.03461
N         11.98266       -5.74944        0.48293
C         13.40112       -7.78823        3.10060
C         13.09758       -6.89113        4.30944
C         11.60577       -6.69528        4.58654
C         11.30050       -5.76513        5.76367
C          9.80449       -5.44971        5.88284
N          9.31353       -4.75288        4.67802
H          1.51314        1.23144       -1.13158
H          1.82389        0.70429        0.53322
H          1.13032       -0.42918       -0.64108
H          3.96441        0.78953       -0.81972
H          3.27616       -0.32951       -1.99081
H          3.08975       -2.09195       -0.20109
H          3.77706       -0.97271        0.97285
H          5.89396       -0.84234       -0.39525
H          5.20363       -1.96271       -1.56606
H          5.01551       -3.72151        0.23871
H          5.73410       -2.60276        1.39508
H          7.82298       -2.49344       -0.02313
H          7.09514       -3.61617       -1.16941
H          6.92980       -5.35391        0.67553
H          7.73664       -4.23736        1.77632
H          9.72944       -4.17746        0.23380
H          8.92725       -5.33227       -0.83774
H          8.84823       -7.00720        1.07220
H          9.71997       -5.85682        2.09663
H         10.73083       -7.09399       -0.53454
H         11.71158       -8.79241        0.76666
H         10.88779       -8.13551        2.20500
H         14.04504       -4.37464        1.10318
H         15.68615       -6.76522        1.46660
H         15.59890       -5.64554        2.86269
H         16.46166       -4.99521       -0.02491
H         17.45190       -4.91517        1.46622
H         16.67509       -2.62128       -0.46358
H         17.74021       -2.46675        0.96233
H         16.06506       -0.96169        2.05620
H         14.99131       -1.11749        0.66065
H         16.73026       -0.04178       -0.81094
H         17.82127        0.09765        0.56690
H         16.16153        1.57309        1.74167
H         15.05703        1.42715        0.37795
H         17.87157        2.69624        0.24351
H         16.33329        3.57740        0.24719
H         16.75899        2.54569       -1.13043
H         12.09766       -5.09250       -0.27973
H         14.48401       -7.91533        2.97274
H         12.99409       -8.79636        3.25681
H         13.57766       -5.90807        4.16989
H         13.59692       -7.34854        5.17929
H         11.13063       -7.67598        4.76681
H         11.11077       -6.26488        3.70384
H         11.85956       -4.81981        5.64281
H         11.65103       -6.20832        6.70933
H          9.62737       -4.88758        6.81755
H          9.24061       -6.39193        5.97204
H          9.61282       -3.77569        4.69499
H          8.29336       -4.73124        4.67730
