47

C          7.38525        4.53206        0.04502
C          7.74101        4.11316       -1.38233
C          6.55551        4.19448       -2.34995
C          6.88131        3.79268       -3.77917
O          7.29543        2.37682       -3.87415
C          6.31987        1.49396       -4.11723
O          5.13607        1.71127       -4.21649
C          6.84742        0.05212       -4.23370
N          8.29236       -0.08901       -4.42654
C          9.26351       -0.00616       -3.42939
N         10.46264       -0.13658       -3.95356
N         10.23416       -0.30125       -5.27837
C          8.93883       -0.28559       -5.60582
C          8.38628       -0.50655       -6.98198
C          8.09493        0.82790       -7.70144
O          7.11657        1.52585       -6.94544
C          9.32170       -1.39006       -7.82718
C          8.97934        0.12968       -1.97334
C         10.24345        0.04710       -1.07405
C         10.88653        1.43025       -0.83701
F         10.96490        2.15871       -1.97979
F         10.13287        2.14980        0.04910
F         12.12164        1.31869       -0.32423
O          9.95693       -0.57391        0.15788
H          8.25670        4.45604        0.70845
H          6.58892        3.89900        0.46348
H          7.03121        5.57220        0.08006
H          8.13260        3.08449       -1.37037
H          8.56589        4.73911       -1.76142
H          6.18237        5.23167       -2.39560
H          5.70955        3.58973       -1.98503
H          7.75171        4.33601       -4.16911
H          6.02061        3.93091       -4.44480
H          6.32544       -0.40906       -5.07731
H          6.56269       -0.49463       -3.32432
H         11.02134       -0.44914       -5.90484
H          7.42019       -1.02296       -6.86018
H          7.73440        0.58724       -8.71530
H          9.03048        1.40990       -7.79770
H          6.78389        2.27808       -7.45842
H         10.25772       -0.87283       -8.08714
H          8.82808       -1.64536       -8.77212
H          9.56677       -2.32879       -7.31492
H          8.33441       -0.70755       -1.66072
H          8.41209        1.05547       -1.78832
H         11.00482       -0.57457       -1.56619
H          9.52596        0.06696        0.75063
