48

C          3.03448       -1.23811       -3.14548
C          2.74423       -0.05253       -2.24703
O          3.11925       -0.33506       -0.84682
P          4.53743        0.11955       -0.27952
O          4.96515        1.52092       -0.50047
C          4.26961       -0.22406        1.50788
C          3.31492        0.80950        2.08998
N          3.32477        0.79244        3.61430
C          4.49274        1.55471        4.20623
C          4.49774        1.38155        5.72212
O          3.25765        1.76933        6.29786
C          2.19093        0.98884        5.78325
C          2.00056        1.21639        4.27497
C          1.60084        2.64367        3.89178
C          0.15078        2.94574        4.29732
C         -0.30832        4.30184        3.77955
F          0.47144        5.30789        4.25499
F         -0.25412        4.35836        2.42045
F         -1.58156        4.55265        4.15121
O          5.53972       -1.01927       -0.77136
C          6.97166       -0.75540       -0.98325
C          7.41013       -1.46787       -2.24407
H          2.65556       -1.02400       -4.15481
H          2.53406       -2.14372       -2.77879
H          4.11065       -1.43847       -3.21925
H          1.67007        0.16519       -2.19649
H          3.26759        0.85905       -2.56932
H          5.27446       -0.15349        1.95226
H          3.90010       -1.25175        1.63737
H          2.28266        0.60707        1.77646
H          3.58760        1.82384        1.77151
H          3.45126       -0.19455        3.88718
H          4.37289        2.60385        3.91246
H          5.41453        1.16495        3.75655
H          5.27245        2.02260        6.16110
H          4.73169        0.33047        5.98891
H          1.28478        1.28284        6.32674
H          2.36380       -0.08865        5.98492
H          1.25863        0.49766        3.89061
H          1.69333        2.78146        2.80527
H          2.26820        3.36980        4.37523
H          0.02432        2.96584        5.38841
H         -0.54613        2.19746        3.89154
H          7.49857       -1.14126       -0.09752
H          7.11925        0.33129       -1.04786
H          7.21152       -2.54551       -2.18061
H          8.49051       -1.32700       -2.38645
H          6.89564       -1.06397       -3.12561
