57

C         -0.11917       -1.01362       -1.70877
C          1.38017       -0.84219       -1.44538
C          2.21686       -1.19832       -2.66237
O          3.61190       -1.01956       -2.31864
C          4.47349       -1.28205       -3.39526
N          5.84421       -1.16575       -2.91735
N          6.49077       -2.29030       -2.48817
C          7.66427       -1.85856       -2.11176
N          7.78689       -0.49813       -2.27790
C          6.58721       -0.05062       -2.73776
C          6.24532        1.33662       -3.14395
C          5.01265        1.99216       -2.43873
C          5.15602        2.01458       -0.91691
N          5.38415        0.66880       -0.41208
C          5.74050        0.59903        1.00589
C          6.08214       -0.83761        1.40213
O          6.48043       -0.94015        2.76230
O          4.79582        3.27741       -2.99012
C          9.01570        0.28636       -2.00434
C          9.11346        0.84198       -0.60121
C          8.93630        2.21094       -0.37112
C          9.07115        2.72100        0.92177
C          9.38675        1.86969        1.98181
C          9.58624        0.49407        1.77312
C          9.44002       -0.00036        0.46920
C          9.99924       -0.41611        2.90198
H         -0.69969       -0.75066       -0.81571
H         -0.36674       -2.05264       -1.96812
H         -0.46419       -0.36932       -2.52986
H          1.69389       -1.48022       -0.60439
H          1.59734        0.19920       -1.15744
H          1.96588       -0.54769       -3.52136
H          2.05174       -2.24743       -2.96805
H          4.32979       -0.56732       -4.22762
H          4.37091       -2.31184       -3.77493
H          8.46106       -2.49343       -1.73891
H          6.04782        1.35696       -4.22717
H          7.12063        1.97647       -2.97134
H          4.11462        1.41284       -2.70190
H          4.26037        2.51121       -0.49340
H          6.02773        2.63438       -0.63882
H          4.56179        0.08813       -0.59986
H          4.94098        0.97943        1.67092
H          6.62285        1.23827        1.16508
H          6.85933       -1.22775        0.71859
H          5.19985       -1.48845        1.29974
H          7.25122       -0.36455        2.89205
H          5.37278        3.92264       -2.54788
H          9.06586        1.08917       -2.74960
H          9.84979       -0.39627       -2.21501
H          8.71796        2.88487       -1.20213
H          8.93992        3.78796        1.10312
H          9.49807        2.28013        2.98709
H          9.60983       -1.06581        0.29175
H         11.09679       -0.48200        2.96009
H          9.61718       -1.43615        2.76593
H          9.65167       -0.04325        3.87437
