45

O          1.22972       -0.16089        0.99108
C          2.57666       -0.08352        0.86045
O          3.29605       -0.89258        1.39308
C          3.10798        1.07906        0.01423
C          4.63670        1.01822       -0.06414
C          5.20224        2.20559       -0.83304
N          6.72098        2.18689       -0.82662
C          7.44981        3.47096       -1.29873
C          6.70964        4.76951       -1.01263
C          7.55305        6.00168       -1.38417
C          6.80602        7.29646       -1.04999
C          7.56156        8.56619       -1.47697
N          6.84462        9.77075       -1.10788
C          5.79315       10.31950       -1.81633
C          5.24942       11.33788       -1.05692
C          5.98786       11.40344        0.15841
C          6.95930       10.42255        0.10456
C          7.72022        3.15975       -2.78825
O          7.36011        1.76550       -2.97978
C          7.29071        1.13726       -1.78562
Br         9.02047        0.52539       -1.00861
H          0.77953        0.55247        0.50471
H          2.77086        2.02706        0.46619
H          2.65585        1.02952       -0.99021
H          4.92686        0.06093       -0.52104
H          5.04154        1.00123        0.96069
H          4.90370        3.15126       -0.36520
H          4.88716        2.22774       -1.88549
H          7.03894        1.96142        0.12662
H          8.39648        3.44919       -0.74208
H          6.45953        4.82529        0.05971
H          5.76307        4.80474       -1.57496
H          7.79680        5.98074       -2.46013
H          8.51559        5.96919       -0.84669
H          6.61632        7.34978        0.03406
H          5.81865        7.29630       -1.53952
H          7.71975        8.57069       -2.56688
H          8.55681        8.59915       -1.00821
H          5.53792        9.95317       -2.80586
H          4.42625       11.98051       -1.35261
H          5.84224       12.10683        0.97173
H          7.73539       10.14574        0.81144
H          8.77648        3.30522       -3.04843
H          7.08705        3.73708       -3.47285
H          6.66016        0.24618       -1.84160
