75

O          1.21067       -0.18087        0.45881
C          2.64662       -0.16884        0.29489
C          3.11599       -1.09294       -0.85463
C          2.60695       -2.52297       -0.71040
N          1.38823       -2.73019       -0.14818
C          0.80280       -3.94549       -0.05303
C          1.42366       -5.08643       -0.53346
C          2.71677       -4.93461       -1.10250
C          3.27197       -3.64990       -1.18322
C          3.48457       -6.10365       -1.63370
C          3.25829       -6.30599       -3.14987
C          3.92734       -7.57779       -3.67906
S          3.14238       -9.11636       -3.12106
C          4.29845       -9.76451       -1.89415
S          5.62337       -8.91332       -1.34725
N          3.96854      -11.01175       -1.48174
C          2.90738      -11.84540       -2.06210
C          2.07285      -12.48682       -0.95233
O          2.87757      -13.22051       -0.03907
C          3.86772      -12.37786        0.55247
C          4.77667      -11.73869       -0.49354
C          0.73325       -6.42007       -0.41483
C          1.27630       -7.34327        0.67142
C          0.91544       -8.69723        0.64260
C          1.34535       -9.55304        1.65604
C          2.16010       -9.07973        2.68602
C          2.54992       -7.73416        2.72560
C          2.08664       -6.87915        1.71387
C          3.45747       -7.22100        3.81333
C          2.72360       -0.57991       -2.28347
C          1.22966       -0.45263       -2.68378
C          0.73479        0.99792       -2.59040
C          1.01178       -1.01378       -4.09728
C          4.66043       -1.06843       -0.76593
H          0.97072        0.41249        1.18776
H          3.13004       -0.48744        1.23449
H          2.98511        0.85326        0.06210
H          0.92473       -1.88077        0.23080
H         -0.17701       -3.96511        0.42332
H          4.26003       -3.53327       -1.62541
H          3.20328       -7.02189       -1.10135
H          4.55774       -5.95596       -1.44895
H          3.66619       -5.44389       -3.70356
H          2.17875       -6.33049       -3.36880
H          4.98332       -7.64414       -3.36904
H          3.86983       -7.60977       -4.77546
H          3.37582      -12.62888       -2.68255
H          2.25775      -11.24462       -2.70838
H          1.36190      -13.20192       -1.38785
H          1.50438      -11.69974       -0.42083
H          4.45884      -13.01878        1.21966
H          3.38404      -11.58630        1.15497
H          5.36120      -12.51368       -1.01855
H          5.47314      -11.02815       -0.03326
H          0.79090       -6.94641       -1.38063
H         -0.33951       -6.24489       -0.23288
H          0.28734       -9.07660       -0.16600
H          1.03831      -10.59965        1.64863
H          2.49394       -9.76183        3.47027
H          2.37759       -5.82666        1.75262
H          3.22481       -7.68187        4.78237
H          3.37933       -6.13166        3.92568
H          4.50930       -7.45537        3.58669
H          3.22571       -1.25949       -2.98968
H          3.21910        0.39668       -2.41162
H          0.61447       -1.05798       -1.99845
H          1.28139        1.64071       -3.29708
H          0.86524        1.41215       -1.58229
H         -0.33295        1.06712       -2.83973
H          1.61100       -0.46337       -4.83866
H         -0.04152       -0.93166       -4.39865
H          1.29756       -2.07439       -4.15666
H          5.02911       -1.55993        0.14452
H          5.01148       -0.02792       -0.75818
H          5.12428       -1.54992       -1.63528
