73

C         11.50820       -6.48755       -0.96663
C         11.15499       -4.99977       -0.89764
C         11.47063       -4.36131        0.45975
C         11.10912       -2.87466        0.54037
C         11.41265       -2.24254        1.90241
C         11.06300       -0.75285        1.98094
C         11.33677       -0.13263        3.35522
C         11.02906        1.36671        3.42197
C         11.26311        1.97492        4.80917
C         11.00693        3.48729        4.85430
C         11.05747        4.11028        6.25675
C         12.43200        3.95501        6.91983
N         12.53057        4.71954        8.17899
C         11.93397        4.38222        9.36687
N         12.17922        5.27349       10.29601
N         12.94733        6.20872        9.67449
C         13.17032        5.90135        8.38606
C         14.01734        6.63455        7.39939
C         13.27876        7.28764        6.21151
C         12.52749        8.56915        6.50521
Br        10.91561        8.21126        7.59536
Br        14.66409        7.76471        4.87970
C         13.42843        7.35789       10.45211
C         14.82113        7.10982       11.02893
O         15.72629        6.96649        9.95631
Si        17.38088        6.60034       10.12156
C         17.55264        4.88139       10.85460
C         17.99654        6.67313        8.35537
C         18.18537        7.88646       11.22182
H         11.28322       -6.90959       -1.95552
H         10.94306       -7.06773       -0.22213
H         12.57779       -6.65403       -0.77057
H         10.08330       -4.86456       -1.12139
H         11.69789       -4.45483       -1.68867
H         12.54516       -4.48886        0.68117
H         10.93358       -4.91080        1.25335
H         10.03665       -2.74713        0.31066
H         11.65288       -2.32341       -0.24708
H         12.48306       -2.37831        2.13788
H         10.86027       -2.78862        2.68742
H          9.99819       -0.61251        1.72458
H         11.63324       -0.20272        1.21161
H         12.39414       -0.29979        3.62725
H         10.74109       -0.66284        4.11898
H          9.98107        1.54150        3.12422
H         11.64749        1.90048        2.67998
H         12.29919        1.75108        5.12073
H         10.60794        1.47159        5.54282
H         10.01226        3.69937        4.43274
H         11.72703        4.00562        4.19709
H         10.29398        3.64478        6.90144
H         10.80584        5.18115        6.20485
H         13.23820        4.30277        6.26018
H         12.64903        2.90776        7.16732
H         11.33793        3.48706        9.51071
H         14.74707        5.91434        7.00043
H         14.61626        7.37628        7.94195
H         12.63457        6.57732        5.68167
H         12.14958        9.02850        5.58847
H         13.12908        9.29211        7.06680
H         12.68940        7.51117       11.24700
H         13.42725        8.23595        9.79465
H         14.79808        6.21210       11.67367
H         15.07070        7.97664       11.66765
H         17.06698        4.12363       10.22386
H         17.12132        4.81690       11.86378
H         18.61500        4.61043       10.94121
H         17.51594        5.90850        7.72875
H         19.08069        6.49532        8.31737
H         17.80504        7.65782        7.90634
H         17.78201        7.86217       12.24436
H         18.04867        8.90102       10.82209
H         19.26650        7.70066       11.29719
