55

C          5.84740        1.17295       -7.68783
C          5.33249        1.96798       -6.48562
C          6.27017        1.91122       -5.27362
C          5.74063        2.67646       -4.05664
C          6.68455        2.63878       -2.84958
C          6.11763        3.36233       -1.62243
C          6.98801        3.28202       -0.35823
C          8.41397        3.82413       -0.49856
S          8.45061        5.53629       -1.14254
C          7.96970        6.52604        0.31905
C          8.43964        7.98090        0.12722
O          8.38206        8.37068       -1.23221
C          7.13921        8.95657       -1.67814
C          6.94860       10.39702       -1.23612
O          7.95434       11.18998       -1.82426
C          7.84281       12.56749       -1.47747
C         10.36274        5.78527       -1.27340
O         10.90078        4.81470       -2.06006
C         10.80495        5.04070       -3.50303
C         11.50710        3.89681       -4.19789
H          5.15663        1.24195       -8.53857
H          5.96472        0.10724       -7.44204
H          6.82654        1.54434       -8.02520
H          4.33985        1.58841       -6.19181
H          5.17927        3.02127       -6.77620
H          7.26004        2.31101       -5.55964
H          6.44045        0.85661       -4.99379
H          4.76176        2.26069       -3.76265
H          5.54986        3.72754       -4.33735
H          7.65383        3.07947       -3.14810
H          6.90104        1.58913       -2.58381
H          5.13303        2.93706       -1.37425
H          5.92155        4.41938       -1.87752
H          7.09929        2.22949       -0.05000
H          6.48121        3.78470        0.48010
H          8.99734        3.26959       -1.24763
H          8.96755        3.80577        0.45086
H          8.39314        6.06661        1.22331
H          6.87501        6.43749        0.35376
H          9.48889        8.08211        0.44007
H          7.84193        8.63398        0.78460
H          6.27545        8.34938       -1.35152
H          7.19561        8.91490       -2.77380
H          6.96918       10.48801       -0.12883
H          5.93534       10.71707       -1.55800
H          8.66850       13.08664       -1.97642
H          7.92716       12.71640       -0.38587
H          6.88473       12.99454       -1.82330
H         10.74287        5.68721       -0.24767
H         10.44576        6.81349       -1.66007
H         11.27130        6.01398       -3.72626
H          9.73833        5.09078       -3.78240
H         12.56208        3.84375       -3.90098
H         11.46370        4.04629       -5.28478
H         11.02771        2.93684       -3.96643
