78

C          1.29077        0.81737        0.38499
C          2.72504        0.28262        0.37985
C          3.47413        0.56804       -0.92688
C          4.91067        0.03486       -0.94048
C          5.65780        0.32808       -2.24547
C          7.09065       -0.21642       -2.26459
C          7.82613        0.09704       -3.57485
C          9.22886       -0.47459       -3.58079
O          9.85751       -0.11987       -4.86836
C         11.02269       -0.71222       -5.13537
O         11.62485       -1.48533       -4.42023
C         11.51466       -0.27735       -6.53472
C         12.96765       -0.61314       -6.72624
N         13.76714        0.45408       -6.50706
C         15.14103        0.45322       -6.48037
C         15.77496       -0.75531       -6.65751
C         15.02293       -1.92504       -6.88964
C         13.56931       -1.87689       -6.97956
C         12.85813       -3.10164       -7.28270
C         13.59862       -4.26942       -7.37031
C         15.00314       -4.31161       -7.23165
C         15.71189       -3.15532       -7.02170
C         11.36313       -3.14300       -7.54476
C         10.81837       -4.50389       -7.99071
C          9.41272       -4.50871       -8.59452
C          8.15036       -4.45919       -7.64739
C          7.74403       -3.14288       -6.87380
C          7.48346       -1.82335       -7.69202
F          6.72927       -2.04950       -8.77043
F          6.85944       -0.93735       -6.89669
F          8.65762       -1.26693       -8.08513
F          6.59834       -3.43177       -6.21445
F          8.70539       -2.86008       -5.94010
F          7.07093       -4.81400       -8.38490
F          8.34368       -5.40126       -6.67657
F          9.27854       -3.51173       -9.53152
F          9.27600       -5.70140       -9.25705
C         15.81084        1.70640       -6.25235
N         17.09497        1.93909       -6.20743
N         17.25304        3.27999       -5.95920
C         16.04245        3.79485       -5.86625
O         15.05651        2.84380       -6.04475
S         15.68408        5.45062       -5.56172
C         13.84786        5.46749       -5.54335
C         13.39709        6.90389       -5.28377
H          0.78263        0.59754        1.33365
H          0.69385        0.36820       -0.42261
H          1.26950        1.90813        0.24246
H          2.71341       -0.80552        0.56047
H          3.28594        0.72179        1.22210
H          3.48649        1.65732       -1.10882
H          2.91382        0.12857       -1.77109
H          4.89717       -1.05503       -0.76431
H          5.46995        0.47010       -0.09384
H          5.67976        1.41839       -2.41763
H          5.09566       -0.10032       -3.09341
H          7.06783       -1.30835       -2.10629
H          7.65362        0.20297       -1.41317
H          7.87438        1.18729       -3.72609
H          7.26426       -0.31782       -4.42510
H          9.23898       -1.56940       -3.49067
H          9.85778       -0.05801       -2.78021
H         11.35617        0.80603       -6.63695
H         10.86405       -0.73853       -7.28270
H         13.30849        1.34587       -6.31855
H         16.86227       -0.79337       -6.61095
H         13.08883       -5.20986       -7.56772
H         15.51868       -5.26872       -7.31334
H         16.79920       -3.16140       -6.94572
H         11.12787       -2.41424       -8.33494
H         10.83540       -2.82599       -6.63840
H         10.83085       -5.23958       -7.17452
H         11.43290       -4.90923       -8.80801
H         13.50551        4.78891       -4.75111
H         13.49034        5.10438       -6.51593
H         13.76525        7.27563       -4.31818
H         12.29997        6.94029       -5.26118
H         13.74034        7.58569       -6.07254
