99

C          1.09253        1.18412        0.59349
C          2.48780        0.83287        0.07083
C          3.51047        1.95608        0.27811
C          4.88207        1.65701       -0.33811
C          5.89641        2.78720       -0.11701
C          7.18600        2.56844       -0.89015
O          8.07934        3.67901       -0.62564
C          9.07315        3.85864       -1.60041
N          9.57196        5.22049       -1.51169
C         10.53248        5.63467       -0.66915
N         11.31749        4.83970        0.07068
C         12.21902        5.62785        0.95252
C         12.11748        7.05196        0.28792
N         10.86589        6.92230       -0.49801
C         12.09922        8.27678        1.20103
C         11.81342        9.59455        0.46770
C         11.91819       10.81286        1.40702
C         11.51743       12.10612        0.73496
C         12.43819       12.83360       -0.03384
C         12.05835       14.01497       -0.67502
C         10.74820       14.48741       -0.55695
C          9.82178       13.77158        0.20565
C         10.20542       12.58980        0.84460
C         11.82287        5.47970        2.42979
C         12.96076        5.82449        3.40120
C         12.56370        5.71866        4.87753
C         13.71573        6.08791        5.81937
C         13.34782        6.06494        7.30693
C         14.51057        6.49111        8.21066
C         14.15946        6.56559        9.70052
C         15.32798        7.05419       10.56411
C         14.99158        7.20620       12.05144
C         16.14642        7.79425       12.87055
C         15.82270        7.96789       14.35739
C         16.98152        8.60798       15.13547
N         16.70666        8.77715       16.55504
C         16.96981        7.84469       17.53540
C         16.47524        8.32543       18.73482
C         15.88443        9.59241       18.47042
C         16.03793        9.84253       17.11840
H          0.38767        0.35566        0.44182
H          0.68320        2.06564        0.07786
H          1.11139        1.41057        1.66999
H          2.42693        0.59238       -1.00452
H          2.84982       -0.08453        0.56504
H          3.62502        2.15313        1.35845
H          3.11667        2.89074       -0.15887
H          4.75667        1.48026       -1.42084
H          5.27836        0.71558        0.07958
H          6.12727        2.88637        0.95573
H          5.45999        3.74777       -0.43652
H          6.98115        2.52458       -1.97671
H          7.67935        1.62227       -0.60180
H          8.66681        3.72105       -2.61793
H          9.92615        3.16222       -1.48552
H          8.96531        5.94171       -1.89125
H         11.01430        3.90965        0.34304
H         13.24305        5.24963        0.82148
H         12.95199        7.15528       -0.42747
H         10.58727        7.64229       -1.15603
H         13.08426        8.34477        1.68710
H         11.35646        8.13901        2.00145
H         10.79622        9.58477        0.04006
H         12.51135        9.72631       -0.37641
H         12.95107       10.88848        1.78311
H         11.27558       10.64298        2.28579
H         13.46885       12.48072       -0.12006
H         12.79007       14.57411       -1.25920
H         10.45495       15.41682       -1.04603
H          8.80044       14.13942        0.31238
H          9.47968       12.04406        1.45267
H         11.53551        4.42655        2.59201
H         10.91944        6.07184        2.64649
H         13.33165        6.84331        3.21044
H         13.81290        5.15262        3.20001
H         12.21448        4.69492        5.09681
H         11.70336        6.38240        5.07298
H         14.08226        7.09650        5.55782
H         14.56477        5.40493        5.64157
H         13.00726        5.05396        7.59034
H         12.48714        6.73478        7.47971
H         14.87557        7.47997        7.88049
H         15.35721        5.79689        8.06798
H         13.82430        5.57493       10.05390
H         13.29842        7.24318        9.83781
H         15.67725        8.02685       10.17428
H         16.18103        6.36254       10.45073
H         14.70400        6.22596       12.46911
H         14.10380        7.85344       12.16065
H         16.42843        8.77215       12.44116
H         17.03699        7.15043       12.76060
H         15.58376        6.99278       14.81194
H         14.92428        8.59489       14.47817
H         17.22107        9.59682       14.71411
H         17.89013        7.99417       15.03905
H         17.49418        6.92460       17.29716
H         16.54575        7.82598       19.69573
H         15.41262       10.25530       19.18880
H         15.73725       10.69132       16.51208
