64

C          0.88701        0.15680        0.10514
C          2.41595        0.11821        0.05292
C          3.01582       -1.01573        0.88975
C          4.54595       -1.07716        0.85034
C          5.12170       -2.22397        1.68625
C          6.65113       -2.31271        1.66562
C          7.18518       -3.49195        2.48480
C          8.71314       -3.59640        2.52026
C          9.19709       -4.80697        3.32725
C         10.72489       -4.88955        3.45239
C         11.14170       -6.09308        4.27572
O         12.59565       -6.07594        4.43902
C         13.05393       -7.10277        5.24537
S         14.89560       -7.07779        5.05717
C         15.26109       -5.38344        5.64053
C         16.75093       -5.03048        5.46285
C         17.02728       -3.69101        6.05565
C         17.39663       -2.58518        5.39608
F         17.55781       -2.54874        4.07868
F         17.64801       -1.42610        5.96702
F         16.88423       -3.62226        7.40595
C         15.43561       -8.09374        6.48226
C         15.00376       -9.54557        6.30368
O         15.36706       -9.93194        4.99962
C         15.09949      -11.32477        4.71679
C         15.54342      -11.61942        3.29985
H          0.48195        0.98046       -0.49831
H          0.52756        0.29073        1.13631
H          0.45304       -0.77977       -0.27590
H          2.82212        1.08190        0.40382
H          2.74799        0.01208       -0.99355
H          2.60502       -1.97954        0.54009
H          2.68265       -0.90867        1.93723
H          4.96026       -0.11795        1.20743
H          4.88139       -1.18222       -0.19628
H          4.70004       -3.17907        1.32637
H          4.78000       -2.11843        2.73094
H          7.07912       -1.37126        2.05221
H          7.00114       -2.40129        0.62247
H          6.76678       -4.43008        2.07988
H          6.80657       -3.41417        3.51914
H          9.13460       -2.67360        2.95496
H          9.10628       -3.65875        1.49113
H          8.81337       -5.72985        2.85975
H          8.75227       -4.76625        4.33655
H         11.10890       -3.97610        3.93371
H         11.18809       -4.95067        2.45516
H         10.85787       -7.04034        3.78413
H         10.67968       -6.06497        5.27861
H         12.74898       -8.11133        4.90659
H         12.82093       -6.97352        6.32103
H         14.93659       -5.30258        6.68733
H         14.62057       -4.74792        5.01326
H         17.02142       -5.02199        4.39858
H         17.39424       -5.77210        5.96501
H         15.04219       -7.64585        7.40447
H         16.53110       -8.01051        6.46518
H         13.91548       -9.66301        6.47781
H         15.52097      -10.14658        7.07729
H         14.01899      -11.51784        4.84944
H         15.64794      -11.94638        5.44699
H         14.99938      -10.99768        2.57684
H         15.34447      -12.67261        3.06238
H         16.61934      -11.43907        3.17989
