70

C         10.29975       -0.12057        1.11367
C          8.96918       -0.35631        0.39823
C          7.84460       -0.76604        1.35793
C          6.48228       -0.99600        0.68788
N          6.52847       -2.04607       -0.33419
C          6.61692       -1.76760       -1.65722
O          6.52190       -0.64231       -2.14209
C          6.93572       -2.97238       -2.57428
N          8.39488       -3.14066       -2.68001
C          9.24729       -2.31851       -3.36138
C          8.88440       -1.13714       -4.19850
C         10.00137       -0.09715       -4.26544
O         11.08174       -0.69905       -4.96908
C         12.35884       -0.06663       -4.83088
C         13.04209       -0.42802       -3.51870
O         12.99658       -1.85493       -3.38547
C         13.83149       -2.34897       -2.31968
N         10.46544       -2.79265       -3.10899
N         10.44576       -3.86911       -2.28380
C          9.17454       -4.08334       -2.02009
C          8.68573       -5.18555       -1.13323
C          9.67803       -5.46258        0.01052
C          9.77315       -4.29663        1.01245
C         11.10993       -4.20997        1.76356
C         12.27610       -3.80500        0.85095
C         13.57812       -3.49638        1.58306
O         13.44730       -2.36556        2.48579
C         13.59259       -1.12881        1.93534
O         13.80313       -0.93157        0.74830
C         13.45171       -0.08416        2.97713
C         13.53835        1.21365        2.66566
H         11.10551        0.12549        0.40925
H         10.61633       -1.01324        1.67319
H         10.22813        0.70501        1.83535
H          9.10514       -1.14330       -0.36460
H          8.66692        0.54816       -0.15403
H          7.70579        0.01680        2.12098
H          8.14189       -1.67415        1.91064
H          6.13610       -0.08721        0.17878
H          5.72512       -1.27433        1.43376
H          6.64550       -3.00520       -0.02347
H          6.52328       -2.76745       -3.56826
H          6.51451       -3.91862       -2.21609
H          7.97028       -0.68119       -3.79082
H          8.66114       -1.48611       -5.22134
H         10.29202        0.21227       -3.24452
H          9.63460        0.79799       -4.79715
H         12.28104        1.03053       -4.92785
H         12.95096       -0.44753       -5.67351
H         12.56145        0.04484       -2.64115
H         14.08898       -0.07962       -3.54813
H         13.63758       -3.42504       -2.24620
H         13.60256       -1.85609       -1.36292
H         14.89134       -2.18431       -2.56845
H         11.40910       -2.39509       -3.39295
H          8.53727       -6.09017       -1.74572
H          7.69565       -4.93297       -0.72385
H         10.65991       -5.67114       -0.43554
H          9.37000       -6.38266        0.52609
H          8.94514       -4.37401        1.73540
H          9.62606       -3.34136        0.47990
H         11.33110       -5.17162        2.25647
H         11.01235       -3.47018        2.57253
H         11.98873       -2.92702        0.25156
H         12.49961       -4.60316        0.12480
H         14.38555       -3.28421        0.86915
H         13.88052       -4.32584        2.23607
H         13.27892       -0.42808        3.99753
H         13.71973        1.52505        1.63557
H         13.44042        1.98936        3.42420
