59

C          5.49701        0.34961        1.49093
C          4.05115        0.78134        1.37010
O          3.60751        0.51420        0.00106
P          2.24153        1.15303       -0.53986
O          2.08890        2.62476       -0.37646
C          2.31740        0.63182       -2.28181
C          3.51216        1.29310       -3.00168
C          3.23715        1.60849       -4.47229
N          4.46501        2.04499       -5.17030
C          4.20109        3.04099       -6.03872
N          5.08880        3.59730       -6.85304
C          6.51062        3.28496       -6.95514
C          7.23505        4.58573       -7.37834
C          8.66773        4.32855       -7.89763
N          8.58840        3.91253       -9.30459
O          6.47709        5.22878       -8.39211
N          2.90565        3.42035       -5.96669
C          2.25421        2.79532       -4.78471
C          1.95261        3.82496       -3.67693
C          3.02710        4.86586       -3.34032
O          3.17013        5.72604       -4.50324
C          2.64515        5.66540       -2.10285
O          1.07899        0.27332        0.12188
C         -0.08596        0.87323        0.77980
C         -1.35594        0.41832        0.09088
H          5.84632        0.51953        2.51830
H          6.13873        0.92611        0.81170
H          5.61061       -0.71794        1.26232
H          3.92854        1.85520        1.57430
H          3.40341        0.21193        2.05372
H          1.35358        0.94369       -2.71232
H          2.35454       -0.46398       -2.34401
H          4.37842        0.61808       -2.94190
H          3.80806        2.21841       -2.48775
H          2.85216        0.70379       -4.97423
H          5.24766        1.41384       -5.30245
H          4.79794        4.33804       -7.49660
H          6.66879        2.49287       -7.70752
H          6.89455        2.93676       -5.98479
H          7.26758        5.26018       -6.50833
H          9.19573        3.61120       -7.24724
H          9.21463        5.27856       -7.84778
H          8.62537        2.90190       -9.42273
H          9.34091        4.31078       -9.86132
H          6.89875        4.89727       -9.22659
H          2.71517        4.41486       -6.10562
H          1.29466        2.36825       -5.10716
H          1.68828        3.29379       -2.75097
H          1.05107        4.38161       -3.98029
H          3.99898        4.36829       -3.16041
H          3.48121        6.59361       -4.20093
H          1.67730        6.16631       -2.24933
H          3.40529        6.43117       -1.88648
H          2.56870        5.00322       -1.22966
H          0.02765        1.96570        0.76440
H         -0.04974        0.52756        1.82227
H         -1.40593        0.78852       -0.94225
H         -2.22726        0.81091        0.63351
H         -1.42812       -0.67690        0.07642
