75

C          1.87990       -0.50996       -0.23010
C          3.35434       -0.85428       -0.00471
C          3.85672       -0.47024        1.39152
C          5.33955       -0.78627        1.61763
C          5.83097       -0.37074        3.01050
C          7.31722       -0.63547        3.19555
O          7.76638       -0.09507        4.48479
C          7.96897       -0.95660        5.48973
O          7.85081       -2.16851        5.42756
C          8.40623       -0.21128        6.75691
C          9.91082       -0.14969        6.89682
C         10.57930        1.04503        6.69393
C         11.98201        1.15179        6.84030
C         12.74623        0.06158        7.20265
C         12.11465       -1.18492        7.41863
C         10.69377       -1.29791        7.25150
C         10.12117       -2.56249        7.43517
N         10.83538       -3.64617        7.77930
C         10.08325       -4.91772        7.92177
C          9.70129       -5.31079        9.36374
C          8.92680       -4.22917       10.13728
O          9.66414       -3.03706       10.35198
O          8.90398       -6.47551        9.15923
C         12.20400       -3.55944        8.00462
C         12.82101       -2.34731        7.80440
C         12.99279       -4.73529        8.50740
C         13.09407       -4.70994       10.05521
O         12.34835       -3.96751       10.71190
N         14.00138       -5.53892       10.62586
C         14.95893       -6.36864        9.88035
C         16.29709       -5.66702        9.61099
C         17.32881       -6.58911        8.95214
C         18.66021       -5.88685        8.67557
C         14.12251       -5.56065       12.08527
H          1.55103       -0.79522       -1.23833
H          1.69942        0.56918       -0.11528
H          1.23218       -1.03130        0.49020
H          3.97200       -0.34508       -0.76381
H          3.51050       -1.93470       -0.16351
H          3.25070       -0.98963        2.15435
H          3.68718        0.60852        1.55433
H          5.94097       -0.27175        0.84808
H          5.51281       -1.86592        1.46928
H          5.26787       -0.91515        3.78585
H          5.63843        0.70259        3.16839
H          7.92073       -0.09800        2.45166
H          7.55701       -1.70618        3.16282
H          7.95446       -0.72763        7.61531
H          8.00816        0.80893        6.72495
H         10.00701        1.93294        6.42230
H         12.45877        2.11780        6.67105
H         13.82584        0.14917        7.32664
H          9.06141       -2.73226        7.25564
H         10.66241       -5.72666        7.46117
H          9.16145       -4.80719        7.33760
H         10.61203       -5.56011        9.93451
H          8.59253       -4.68042       11.09341
H          8.01632       -3.95716        9.57877
H         10.56125       -3.27609       10.66869
H          8.66287       -6.84385       10.02433
H         13.89694       -2.28557        7.96985
H         13.99239       -4.68576        8.05680
H         12.56305       -5.69646        8.19248
H         14.50165       -6.71031        8.94141
H         15.12625       -7.27639       10.47956
H         16.70158       -5.28228       10.56120
H         16.12721       -4.78093        8.97463
H         16.91724       -6.98965        8.01007
H         17.49970       -7.46259        9.60317
H         18.52974       -5.03040        7.99785
H         19.38097       -6.57103        8.20953
H         19.11338       -5.50984        9.60383
H         13.44104       -4.81871       12.50920
H         15.15184       -5.32052       12.38562
H         13.86701       -6.55915       12.46870
