63

O          8.68680       -0.27845        7.88578
C          9.41653       -0.62617        6.70717
C          8.38520       -0.95085        5.62449
N          7.41662        0.11324        5.33177
C          7.94406        1.31048        4.68868
C          7.91737        1.15727        3.16086
C          6.49586        1.18786        2.60555
C          6.34808        0.94366        1.09793
N          6.93286        2.14749        0.37911
C          7.06026        2.05164       -1.12383
C          7.70771        0.71282       -1.47058
N          6.91694       -0.36099       -0.88994
C          6.96702       -0.36770        0.57341
C          6.21689       -1.61614        1.11868
C          4.81939       -1.65048        0.48832
O          3.95275       -0.83694        0.76316
O          4.68189       -2.65444       -0.39550
C          3.40212       -2.77347       -1.09784
C          2.96691       -4.22426       -1.07050
C          7.04315       -2.89666        0.95864
C          5.68916        2.26816       -1.77659
C          5.05347        3.65529       -1.50161
N          6.02840        4.69243       -1.86569
N          3.74513        3.66248       -2.15846
N          4.84163        3.81066       -0.03602
O          8.64920        2.22795        2.51227
H          9.31146       -0.09086        8.60191
H         10.05360       -1.51405        6.86989
H         10.07674        0.20520        6.39424
H          7.81136       -1.83355        5.94427
H          8.91355       -1.23415        4.69988
H          6.94095        0.36240        6.19773
H          8.98500        1.55950        4.98995
H          7.32718        2.17566        4.97505
H          8.39504        0.19346        2.90665
H          6.04283        2.16346        2.85118
H          5.90977        0.43786        3.15314
H          5.27878        0.92598        0.84913
H          7.83794        2.37315        0.83226
H          6.23596        2.95017        0.52808
H          7.72626        2.87897       -1.40524
H          8.76119        0.72330       -1.11277
H          7.73672        0.59731       -2.56255
H          7.19940       -1.26671       -1.26111
H          8.01638       -0.43490        0.93667
H          6.04272       -1.45356        2.19284
H          3.58682       -2.41772       -2.12204
H          2.67939       -2.10446       -0.61514
H          3.72642       -4.88108       -1.51431
H          2.03872       -4.33892       -1.64711
H          2.77140       -4.55784       -0.04284
H          7.25990       -3.13809       -0.09032
H          6.51114       -3.75840        1.37901
H          7.99778       -2.79485        1.49339
H          4.98069        1.48426       -1.47744
H          5.82513        2.15870       -2.86405
H          6.25199        4.62856       -2.86023
H          5.63578        5.62579       -1.72230
H          3.81339        3.39798       -3.14255
H          3.31723        4.58994       -2.12000
H          4.78941        4.79923        0.21805
H          3.94142        3.38728        0.20195
H          9.52903        2.29973        2.91750
