54

C          0.62077        1.15378        0.52448
C          2.00919        1.00975        1.15111
C          3.13926        1.47182        0.22258
C          4.52504        1.34369        0.86427
C          5.64101        1.79808       -0.08727
N          6.99451        1.86236        0.51067
C          7.77240        0.77066        0.54470
N          9.09917        0.86064        0.81649
C          9.97932       -0.23031        1.08422
C         11.19936       -0.30216        0.40632
C         12.06142       -1.35747        0.71761
N         11.77688       -2.31267        1.61327
C         10.60512       -2.22364        2.25628
C          9.67455       -1.20202        2.04493
N          7.25774       -0.43878        0.25018
C          7.47540        3.18434        0.94414
C          6.59790        3.84622        2.01019
C          7.41392        4.96707        2.66824
O          8.58791        4.77021        2.97697
N          6.77480        6.14128        2.95034
C          5.47881        6.57939        2.53616
C          5.17684        6.71483        1.17354
C          3.91292        7.16047        0.78199
C          2.95900        7.50051        1.74564
C          3.27018        7.38835        3.10397
C          4.52453        6.92114        3.50245
H         -0.16414        0.84157        1.22529
H          0.52258        0.53680       -0.38019
H          0.41629        2.19629        0.24057
H          2.17961       -0.04256        1.43444
H          2.05525        1.58804        2.08914
H          2.97093        2.52454       -0.06340
H          3.10568        0.89232       -0.71638
H          4.68084        0.29844        1.18712
H          4.56293        1.94193        1.78648
H          5.42386        2.81155       -0.45270
H          5.68934        1.15260       -0.97798
H          9.53994        1.76118        0.65735
H         11.47457        0.43784       -0.34653
H         13.02613       -1.44073        0.21091
H         10.39948       -3.00115        2.99676
H          8.76143       -1.15453        2.63896
H          6.26483       -0.61216        0.33815
H          7.87745       -1.24104        0.22134
H          7.55929        3.83091        0.05538
H          8.47071        3.09947        1.39684
H          6.39047        3.12328        2.81498
H          5.63904        4.20155        1.61629
H          7.33360        6.78070        3.51432
H          5.94592        6.50253        0.42863
H          3.68458        7.27165       -0.27856
H          1.97940        7.86666        1.43807
H          2.53266        7.66164        3.85889
H          4.77002        6.81942        4.56048
