67

C          1.84080       -3.57793       -9.18112
C          3.32805       -3.29258       -8.95952
C          3.59338       -2.04718       -8.10511
C          5.08378       -1.76630       -7.89071
C          5.37437       -0.49827       -7.08042
C          6.87299       -0.21607       -6.93386
C          7.20315        1.07036       -6.16940
C          8.70778        1.36208       -6.13392
C          9.07417        2.66204       -5.40888
C         10.57979        2.96724       -5.37809
C         11.13987        3.27539       -6.79105
C         12.61828        3.39314       -6.81715
N         13.43994        2.32124       -6.74356
N         14.68157        2.74877       -6.79571
N         14.65994        4.05653       -6.90477
N         13.37881        4.50851       -6.91027
C         13.04202        5.96343       -7.02583
C         12.51118        6.24348       -8.43264
O         13.51489        5.80718       -9.34320
C         12.13181        6.43114       -5.88169
C         12.71720        6.19164       -4.48840
C         15.88042        4.86155       -7.05485
O         15.97996        5.67604       -5.92707
C         17.19925        6.46533       -5.91459
C         17.15298        7.38214       -4.70513
C         18.42024        8.23494       -4.58661
H          1.69090       -4.46811       -9.80725
H          1.34222       -2.73365       -9.68079
H          1.31939       -3.75063       -8.22789
H          3.82890       -3.17171       -9.93538
H          3.80460       -4.16657       -8.48387
H          3.09484       -2.16100       -7.12636
H          3.12095       -1.17073       -8.58339
H          5.58034       -1.68541       -8.87420
H          5.55016       -2.63325       -7.39038
H          4.91307       -0.58259       -6.08105
H          4.88696        0.36532       -7.56660
H          7.32569       -0.16143       -7.94025
H          7.35929       -1.07171       -6.43331
H          6.81364        1.00417       -5.13909
H          6.67817        1.92113       -6.63863
H          9.07262        1.38814       -7.17622
H          9.23509        0.51987       -5.65299
H          8.72267        2.60865       -4.36636
H          8.53408        3.51089       -5.86417
H         11.12929        2.10923       -4.96094
H         10.77683        3.82355       -4.71562
H         10.66370        4.17211       -7.20683
H         10.89965        2.43768       -7.46267
H         14.01167        6.46669       -6.91503
H         12.32993        7.32983       -8.50342
H         11.55107        5.72649       -8.60592
H         13.21278        5.95385      -10.25309
H         11.13320        5.97908       -5.97232
H         11.98680        7.50999       -6.04367
H         12.84606        5.12280       -4.26794
H         12.04849        6.60239       -3.72262
H         13.69796        6.67276       -4.37698
H         15.79863        5.42811       -8.00131
H         16.68336        4.10844       -7.13636
H         17.26773        7.04449       -6.85419
H         18.06571        5.78130       -5.86750
H         17.02010        6.76753       -3.80179
H         16.26557        8.03011       -4.78530
H         19.31718        7.61105       -4.46799
H         18.35860        8.89388       -3.71196
H         18.56639        8.87138       -5.47092
