31

C          1.32851        0.43430        0.21154
C          2.79797        0.05249       -0.05146
C          2.98618       -0.52406       -1.42997
C          3.28918        0.27217       -2.54305
C          3.40989       -0.30442       -3.80915
C          3.22183       -1.66724       -3.95667
N          2.92527       -2.43531       -2.87905
C          2.81076       -1.89234       -1.64758
C          2.72869       -3.92784       -3.10742
C          2.37285       -4.69733       -1.87146
C          1.03009       -4.82707       -1.48021
C          0.70259       -5.53111       -0.32079
C          1.71315       -6.11244        0.45173
C          3.05101       -5.99528        0.06344
C          3.38101       -5.29055       -1.09521
H          1.22498        0.86741        1.21420
H          0.67068       -0.44407        0.15135
H          0.97236        1.17500       -0.51755
H          3.13516       -0.67602        0.70063
H          3.43981        0.93876        0.05522
H          3.43452        1.34632       -2.41665
H          3.64968        0.29596       -4.68540
H          3.30033       -2.18278       -4.91259
H          2.57408       -2.58988       -0.84541
H          3.67085       -4.28553       -3.54421
H          1.94059       -4.00365       -3.86886
H          0.23950       -4.38368       -2.08987
H         -0.34133       -5.63655       -0.02521
H          1.45603       -6.66789        1.35392
H          3.83652       -6.46164        0.65794
H          4.42536       -5.20873       -1.40439
