45

O          1.04152        0.27422        0.32943
C          2.44162        0.42677        0.13150
C          2.80472       -0.39613       -1.10364
C          4.32295       -0.60866       -1.27743
N          4.67086       -0.84825       -2.68369
C          4.32438       -2.18609       -3.18320
N          4.79033       -2.47421       -4.51234
C          4.83555       -3.31747       -2.27069
N          4.42142       -3.08004       -0.83272
C          4.87256       -1.71447       -0.35297
C          4.85685       -4.18791        0.09839
C          4.09581       -5.49912       -0.13102
O          4.50458       -6.35165        0.89815
Si         4.08098       -8.00436        1.00186
C          2.22166       -8.12821        1.22113
C          4.62500       -8.86571       -0.57564
C          5.02565       -8.59886        2.49604
H          0.73867        0.91882        0.98723
H          3.00454        0.07678        1.02090
H          2.71823        1.48330       -0.03485
H          2.42487        0.10440       -2.00404
H          2.24791       -1.34895       -1.03307
H          4.83253        0.32143       -0.98002
H          5.65993       -0.65516       -2.85746
H          3.22107       -2.24637       -3.20590
H          5.80199       -2.37317       -4.60732
H          4.34429       -1.87308       -5.20392
H          5.93490       -3.36849       -2.27394
H          4.42989       -4.28362       -2.58944
H          3.38864       -3.06628       -0.81704
H          5.97088       -1.73265       -0.35116
H          4.51867       -1.61171        0.68161
H          4.67016       -3.84324        1.12377
H          5.93776       -4.32628       -0.03321
H          4.32190       -5.91840       -1.12968
H          3.00207       -5.29818       -0.09771
H          1.67191       -7.72514        0.35852
H          1.88943       -7.59481        2.12245
H          1.92293       -9.18105        1.32915
H          4.07206       -8.51990       -1.46068
H          4.44183       -9.94659       -0.48868
H          5.69945       -8.72727       -0.76061
H          4.73519       -8.04401        3.39824
H          6.10839       -8.48135        2.35293
H          4.82419       -9.66409        2.67699
