71

C          6.58098        1.16908       -8.53685
C          6.16274        0.84910       -7.10053
C          6.76310        1.81967       -6.07761
C          6.25012        1.59553       -4.64943
C          6.89119        2.50722       -3.61605
O          6.65027        3.87713       -4.02077
C          7.13970        4.86324       -3.14689
N          8.60044        4.94567       -3.10987
C          9.38505        5.14368       -4.19216
N          8.88457        4.90095       -5.40891
C          9.35834        5.38736       -6.70170
O          8.25083        5.23606       -7.53907
C          8.49885        5.63694       -8.90332
C          7.42413        5.03681       -9.79512
C          5.98884        5.42384       -9.41710
C          4.95143        4.84552      -10.38322
N         10.64289        5.58783       -3.97119
C         11.84566        5.11462       -4.68018
C         13.10261        5.83242       -4.18390
C         13.44637        5.65966       -2.69012
S         12.86005        7.01662       -1.61372
C         11.62585        6.29370       -0.54259
S         11.00122        4.73774       -0.77910
N         11.24277        7.09994        0.46261
C         11.84648        8.42197        0.72441
C         11.10536        9.57556        0.04474
C         10.17577        6.69737        1.40248
C         10.71639        5.98076        2.63978
H          6.16496        0.44446       -9.24939
H          7.67555        1.15499       -8.65056
H          6.22931        2.16774       -8.83487
H          6.45697       -0.18207       -6.84439
H          5.06324        0.87796       -7.02390
H          6.53018        2.85021       -6.39354
H          7.86503        1.73079       -6.09405
H          6.44074        0.55584       -4.33651
H          5.15760        1.73431       -4.61984
H          7.98020        2.32908       -3.55115
H          6.45612        2.35040       -2.61335
H          6.81562        4.69637       -2.10595
H          6.71797        5.81007       -3.51610
H          9.09306        4.86643       -2.21043
H          7.96507        4.44435       -5.43020
H         10.21002        4.78031       -7.07202
H          9.68749        6.44276       -6.60470
H          9.49814        5.27963       -9.21322
H          8.49730        6.74188       -8.95568
H          7.53162        3.94006       -9.78966
H          7.63960        5.36297      -10.82643
H          5.90224        6.52337       -9.39277
H          5.77664        5.07811       -8.39330
H          5.11335        5.20561      -11.40977
H          3.93173        5.12807      -10.08963
H          4.99528        3.74650      -10.40970
H         10.81463        5.68843       -2.96053
H         11.74412        5.29947       -5.75647
H         11.95187        4.02480       -4.53981
H         13.04520        6.90146       -4.43771
H         13.94132        5.42449       -4.76788
H         14.53516        5.67324       -2.55430
H         13.05735        4.72200       -2.26196
H         12.89922        8.38936        0.41102
H         11.84695        8.55416        1.81551
H         11.12280        9.47589       -1.04828
H         11.58854       10.52595        0.30755
H         10.05815        9.63092        0.37185
H          9.47939        6.05033        0.85565
H          9.64304        7.61725        1.68322
H         11.20755        5.03960        2.36307
H          9.88568        5.74902        3.31983
H         11.43480        6.60333        3.19022
