51

C          4.68191        3.77776        0.09716
C          4.55588        2.26434        0.28605
C          3.10604        1.73780        0.33462
C          2.42793        1.85310       -1.05277
C          0.93245        2.24277       -1.07932
N          0.14178        1.39983       -0.13247
C         -0.54483        2.04123        0.74120
C         -0.38868        3.50581        0.61901
C          0.70706        3.67989       -0.46712
C          0.43616        4.80773       -1.47085
C          0.44248        6.18344       -0.81145
O          1.74122        6.37117       -0.23299
C          1.84492        7.40003        0.72901
C          1.62142        6.87144        2.14872
F          2.46753        5.85098        2.44493
F          1.80553        7.85016        3.05664
F          0.35238        6.37913        2.32176
C          0.30014        2.02289       -2.47998
C          0.41529        0.61535       -3.08181
O         -0.06460       -0.32718       -2.08184
C         -0.38169        0.49331       -4.37411
C          3.07743        0.29202        0.85343
H          5.73661        4.07989        0.07559
H          4.19788        4.32514        0.91891
H          4.23111        4.13039       -0.84274
H          5.05506        1.97755        1.22446
H          5.10017        1.73339       -0.51432
H          2.56496        2.37224        1.06108
H          2.58052        0.90798       -1.59368
H          2.92459        2.62915       -1.65660
H          0.07016        0.39180       -0.35007
H         -1.19184        1.51036        1.44377
H         -0.13955        3.97118        1.58429
H         -1.37161        3.92867        0.33684
H          1.63484        3.94832        0.05337
H         -0.53046        4.67591       -1.98222
H          1.21732        4.80088       -2.24672
H         -0.34611        6.25980       -0.04388
H          0.25177        6.96449       -1.56814
H          1.14026        8.22986        0.55344
H          2.86915        7.79664        0.68848
H          0.78323        2.71803       -3.18103
H         -0.76581        2.30007       -2.43957
H          1.47609        0.39000       -3.28793
H         -0.07613       -1.21627       -2.47060
H         -1.44782        0.69337       -4.19899
H         -0.28337       -0.51526       -4.80021
H         -0.01159        1.20112       -5.12878
H          3.66334       -0.36891        0.19698
H          2.06167       -0.12578        0.91276
H          3.51125        0.22854        1.86029
