83

C          1.75926       -0.37888        0.71301
C          3.17249       -0.12070        0.18521
C          3.46267       -0.83088       -1.14233
C          4.87970       -0.58413       -1.66847
C          5.17164       -1.28691       -2.99926
C          6.60522       -1.04827       -3.49063
C          6.88584       -1.70792       -4.82828
O          8.27316       -1.47379       -5.16116
C          8.63443       -1.97566       -6.43191
C         10.12422       -1.76969       -6.53550
C         10.70543       -0.72138       -7.22891
C         12.10931       -0.55901       -7.19215
C         12.81704        0.62871       -7.77902
C         12.57625        1.85976       -6.87001
C         13.58483        3.00573       -7.04216
C         14.74039        3.09634       -5.96899
C         15.80216        1.93711       -5.82263
C         16.82765        1.57432       -6.96832
C         17.83549        2.64416       -7.55210
C         18.83769        3.35339       -6.56636
F         19.49561        2.44598       -5.82277
F         19.72366        4.04810       -7.29520
F         18.19061        4.20244       -5.74939
F         18.58345        1.96408       -8.45859
F         17.12816        3.59889       -8.20290
F         17.55654        0.53917       -6.47771
F         16.11351        1.11164       -8.03486
F         16.52047        2.20557       -4.70564
F         15.09651        0.77851       -5.59327
F         15.40197        4.25903       -6.15280
F         14.11745        3.14561       -4.74850
F         14.13861        3.00902       -8.29163
F         12.91076        4.19057       -6.89787
N         12.89694       -1.42354       -6.54927
N         12.31272       -2.42723       -5.89749
C         10.98961       -2.61690       -5.82866
C         13.24794       -3.24474       -5.09966
C         13.66854       -2.46211       -3.83735
O         12.45604       -2.12111       -3.16495
C         12.38663       -0.75393       -2.68623
C         13.39720       -0.44113       -1.61233
C         13.29383       -1.04306       -0.34826
C         14.26626       -0.81119        0.62362
C         15.35111        0.02874        0.34538
C         15.45402        0.64377       -0.90383
C         14.47948        0.40799       -1.87769
C         14.59938       -3.31348       -2.97868
H          1.58189        0.14690        1.66090
H          1.58900       -1.45083        0.89183
H          0.99647       -0.03844       -0.00280
H          3.91231       -0.44308        0.93757
H          3.32649        0.96402        0.05642
H          2.72826       -0.50270       -1.89894
H          3.30219       -1.91632       -1.01743
H          5.61289       -0.91678       -0.91306
H          5.04136        0.50121       -1.78873
H          4.45377       -0.93741       -3.76110
H          4.99519       -2.37055       -2.88782
H          7.32300       -1.43541       -2.74924
H          6.79658        0.03295       -3.58156
H          6.24476       -1.28585       -5.62461
H          6.70219       -2.79836       -4.78798
H          8.11622       -1.44305       -7.25210
H          8.39320       -3.05366       -6.52973
H         10.08843       -0.01365       -7.78519
H         12.45026        0.83503       -8.79363
H         13.88141        0.38640       -7.85026
H         12.57211        1.56881       -5.81136
H         11.59076        2.29802       -7.07892
H         10.64422       -3.44542       -5.21342
H         14.11281       -3.46574       -5.73555
H         12.73112       -4.17295       -4.82680
H         14.18888       -1.54683       -4.17017
H         11.35663       -0.65840       -2.31571
H         12.51595       -0.05992       -3.53772
H         12.45304       -1.70537       -0.13266
H         14.17942       -1.28250        1.60320
H         16.11079        0.20795        1.10689
H         16.29181        1.30728       -1.12119
H         14.55826        0.89486       -2.85162
H         14.07912       -4.20896       -2.61284
H         14.93517       -2.73393       -2.11156
H         15.48688       -3.62570       -3.54730
