33

C          1.16127       -0.52599       -0.22366
C          2.37382        0.25753        0.17409
O          2.70238        1.33114       -0.25230
N          3.23220       -0.38166        1.20186
C          2.99856       -1.60568        1.82338
C          4.01641       -1.81048        2.69602
N          4.86791       -0.71581        2.60436
C          4.39180        0.15840        1.69564
C          5.02405        1.44285        1.31221
C          6.06738       -0.53919        3.45453
C          5.80655        0.34209        4.68351
C          4.68145       -0.18905        5.58055
C          4.49508        0.66324        6.83939
S          3.01218        0.08168        7.70954
O          1.85727        0.37516        6.88944
O          3.25426       -1.24998        8.21333
Cl         2.98808        1.38008        9.31999
H          0.63040        0.04718       -0.98901
H          0.49293       -0.68591        0.63535
H          1.43584       -1.50965       -0.63160
H          2.13809       -2.22145        1.59854
H          4.21066       -2.63228        3.37463
H          5.97661        1.57258        1.83504
H          4.36595        2.28906        1.55288
H          5.19762        1.48353        0.22928
H          6.87070       -0.12835        2.83078
H          6.37405       -1.55010        3.75297
H          5.58358        1.37246        4.36382
H          6.75540        0.38943        5.24015
H          4.89264       -1.22846        5.87722
H          3.73123       -0.19831        5.02412
H          4.31273        1.72266        6.61338
H          5.32935        0.57400        7.54764
