100

C         11.14053       12.61204       -0.31039
C         11.18578       11.08317       -0.37438
C         11.62630       10.54265       -1.73948
C         11.69000        9.01328       -1.80266
C         12.14065        8.46815       -3.16176
C         12.22761        6.93926       -3.20846
C         12.68275        6.38604       -4.56271
C         12.79855        4.85866       -4.58903
C         13.24998        4.29539       -5.94032
C         13.39082        2.76988       -5.94554
C         13.82323        2.19404       -7.29778
C         13.96470        0.66875       -7.28660
C         14.35203        0.07649       -8.64584
C         14.45353       -1.45328       -8.61446
C         14.74635       -2.09180       -9.98585
C         13.55167       -1.94360      -10.95400
N         12.82208       -3.20707      -10.77326
C         13.52630       -4.14244      -10.22011
C         14.92305       -3.64363       -9.93555
C         15.62843       -4.24222       -8.70583
O         15.86108       -5.62585       -8.92293
C         17.24568       -6.03600       -8.87663
C         17.84597       -6.03430       -7.47384
C         17.11921       -6.94185       -6.47643
C         17.75442       -6.93122       -5.08236
C         17.02726       -7.81945       -4.06669
C         17.66955       -7.79671       -2.67712
C         13.00342       -5.52557       -9.96931
C         11.53364       -5.64883       -9.51046
P         10.25708       -5.34421      -10.77167
O         10.46852       -4.05545      -11.52000
O         10.26130       -6.62434      -11.72402
C         10.35538       -6.54254      -13.18863
C          8.98665       -6.45497      -13.83127
O          8.95412       -5.44826       -9.87822
C          7.58670       -5.51318      -10.41673
C          7.05996       -4.14755      -10.81256
H         10.82412       12.96584        0.68051
H         10.43608       13.02241       -1.04947
H         12.12809       13.05001       -0.51951
H         10.19179       10.67361       -0.12607
H         11.87038       10.70237        0.40258
H         12.61714       10.95975       -1.99311
H         10.93642       10.91343       -2.51833
H         10.69849        8.59570       -1.55281
H         12.37627        8.64612       -1.01901
H         13.12576        8.89662       -3.41790
H         11.44682        8.81981       -3.94570
H         11.24340        6.50923       -2.95121
H         12.92147        6.59155       -2.42267
H         13.65832        6.82971       -4.82903
H         11.97863        6.71396       -5.34769
H         11.82517        4.41386       -4.31609
H         13.50659        4.53515       -3.80572
H         14.21486        4.75177       -6.22309
H         12.53191        4.59974       -6.72217
H         12.42967        2.31432       -5.64792
H         14.11861        2.46907       -5.17164
H         14.78147        2.64953       -7.60240
H         13.09024        2.48669       -8.07020
H         13.01123        0.21887       -6.95680
H         14.71379        0.37428       -6.53113
H         15.31630        0.49859       -8.97704
H         13.60880        0.40025       -9.39469
H         13.51854       -1.87338       -8.20025
H         15.24854       -1.73357       -7.90651
H         15.64516       -1.62896      -10.41599
H         13.85532       -1.86280      -12.01009
H         12.88848       -1.09963      -10.72817
H         11.82262       -3.39793      -11.12191
H         15.52516       -3.96505      -10.80938
H         15.02201       -4.11279       -7.79385
H         16.57169       -3.69344       -8.54964
H         17.83792       -5.39617       -9.55698
H         17.23786       -7.05335       -9.29356
H         17.88636       -5.00278       -7.08202
H         18.89852       -6.34969       -7.57452
H         17.10489       -7.97405       -6.86771
H         16.06282       -6.63293       -6.40182
H         17.78414       -5.89450       -4.70219
H         18.80808       -7.25226       -5.15859
H         17.00029       -8.85559       -4.44433
H         15.97420       -7.49779       -3.99232
H         18.71042       -8.15067       -2.71293
H         17.12552       -8.43941       -1.97208
H         17.68160       -6.77941       -2.25834
H         13.66166       -5.99914       -9.22944
H         13.17526       -6.10623      -10.89459
H         11.32451       -4.96424       -8.67507
H         11.36878       -6.66671       -9.13076
H         10.87890       -7.46385      -13.47185
H         10.97897       -5.67675      -13.45084
H          8.34825       -7.29322      -13.52257
H          9.09517       -6.50081      -14.92428
H          8.48734       -5.50775      -13.58547
H          7.00794       -5.94950       -9.59426
H          7.58123       -6.22357      -11.25503
H          7.09528       -3.45101       -9.96487
H          6.01131       -4.24721      -11.12674
H          7.62799       -3.71313      -11.64504
