94

C          1.00362       -0.61286        0.57581
C          2.51203       -0.35236        0.59444
C          2.95575        0.55442        1.74774
C          4.46557        0.81037        1.78791
C          4.89881        1.72620        2.93721
C          6.41147        1.95603        3.00472
C          6.83442        2.88244        4.14987
C          8.35243        3.07696        4.23424
C          8.75771        4.01342        5.35869
O         10.19614        4.08272        5.39130
C         10.69182        5.07045        6.27039
C         12.16793        5.23081        6.00428
C         13.06991        4.99542        7.00919
N         14.41845        5.14379        6.78698
C         14.93136        5.51195        5.60163
C         14.08085        5.76585        4.52382
C         12.65874        5.62131        4.71124
C         11.82495        5.87690        3.61849
C         12.33782        6.25841        2.37152
C         11.33661        6.45422        1.34292
N         10.06629        6.11850        1.42809
N          9.45340        6.49677        0.26823
C         10.38975        7.05744       -0.47909
O         11.61219        7.05869        0.13490
S         10.16142        7.73607       -2.04357
C         11.82376        8.42610       -2.39150
C         11.77857        9.18011       -3.72122
C         13.15243        9.77627       -4.05194
C         13.18527       10.56767       -5.36319
C         14.58271       11.10356       -5.69089
C         14.64975       11.93491       -6.97611
C         16.06078       12.44562       -7.27939
C         13.76221        6.39553        2.17245
C         14.58526        6.14875        3.25486
C         14.40582        6.79921        0.86863
C         14.52163        8.33002        0.69424
C         15.30497        8.71578       -0.56490
C         15.40737       10.22968       -0.77590
C         16.30346       10.62649       -1.95519
C         16.33332       12.13583       -2.20540
H          0.71657       -1.26315       -0.26191
H          0.43716        0.32520        0.47704
H          0.67156       -1.10160        1.50393
H          2.82057        0.10140       -0.36275
H          3.05153       -1.31254        0.66005
H          2.63734        0.10576        2.70548
H          2.42303        1.51937        1.67700
H          4.78829        1.25133        0.82823
H          4.99672       -0.15445        1.86985
H          4.55363        1.29689        3.89433
H          4.38530        2.69902        2.84121
H          6.76312        2.37786        2.04711
H          6.92393        0.98420        3.11440
H          6.46168        2.47342        5.10511
H          6.34172        3.86227        4.02481
H          8.73475        3.48316        3.28357
H          8.84772        2.10471        4.38857
H          8.38317        3.65470        6.33646
H          8.34784        5.02922        5.19417
H         10.52418        4.80059        7.33146
H         10.18312        6.04353        6.10233
H         12.78406        4.68230        8.01104
H         15.05650        4.95673        7.55803
H         16.01554        5.59353        5.53646
H         10.74906        5.75401        3.71316
H         12.54257        7.59632       -2.42841
H         12.09709        9.09670       -1.56546
H         11.02481        9.98225       -3.66803
H         11.46127        8.49984       -4.52817
H         13.89790        8.96324       -4.09805
H         13.46841       10.43443       -3.22519
H         12.47236       11.40794       -5.30106
H         12.83097        9.92802       -6.18984
H         15.28701       10.25605       -5.76925
H         14.94365       11.71786       -4.84818
H         13.95674       12.78895       -6.89228
H         14.28410       11.33052       -7.82317
H         16.44067       13.07827       -6.46302
H         16.08395       13.04410       -8.19991
H         16.76762       11.61209       -7.40807
H         15.66596        6.23774        3.12603
H         13.86357        6.37057        0.01585
H         15.41772        6.36730        0.84528
H         15.02149        8.75298        1.58153
H         13.51557        8.77742        0.66829
H         14.83697        8.25309       -1.45061
H         16.31957        8.28532       -0.50404
H         15.78901       10.70457        0.14477
H         14.39550       10.64670       -0.92730
H         15.96341       10.10761       -2.86620
H         17.32732       10.26215       -1.76824
H         15.32582       12.52747       -2.41241
H         16.96853       12.38689       -3.06548
H         16.72422       12.68027       -1.33342
