96

C          0.72211        0.13731        0.19237
C          2.24762        0.06899        0.08282
C          2.89923        1.43357       -0.16811
C          4.42675        1.38072       -0.27763
C          5.06823        2.75070       -0.52136
C          6.59699        2.71391       -0.62482
C          7.21937        4.09499       -0.85526
C          8.74945        4.08691       -0.94931
C          9.34014        5.48530       -1.15829
C         10.87097        5.51876       -1.24456
C         11.41348        6.94128       -1.41623
C         12.94273        7.03183       -1.50909
C         13.40580        8.49733       -1.60180
C         14.87900        8.73412       -1.77538
N         15.74894        7.95920       -1.03846
C         17.09159        8.07542       -0.99508
C         17.82526        7.08231       -0.15159
C         18.52414        5.96749       -0.96982
C         18.94931        4.81591       -0.05107
C         19.78180        3.76399       -0.79076
S         19.91019        2.26950        0.21521
O         20.66200        2.56640        1.41739
O         18.60440        1.66120        0.26697
O         20.83199        1.33380       -0.73888
C         17.69236        9.10115       -1.76731
C         16.83813        9.92155       -2.58548
C         15.43767        9.70414       -2.57060
C         17.43002       10.93876       -3.37222
C         18.79169       11.14148       -3.33413
C         19.64955       10.34854       -2.52043
C         19.09343        9.33921       -1.75389
C         21.12487       10.65146       -2.48569
C         21.47215       11.74667       -1.45346
O         21.14921       11.37696       -0.07555
C         21.76464       10.30439        0.49324
O         22.49494        9.52472       -0.08313
C         21.39758       10.20010        1.95956
S         19.89028        9.18981        2.21536
C         22.91057       12.23480       -1.56670
O         22.99363       13.43330       -0.77110
C         24.25272       13.94490       -0.61249
O         25.25409       13.40366       -1.02748
C         24.20582       15.27468        0.10287
S         24.06192       16.63445       -1.11912
H          0.28542       -0.85426        0.37476
H          0.27232        0.53306       -0.73056
H          0.40979        0.79412        1.01811
H          2.52876       -0.62248       -0.72958
H          2.66437       -0.36705        1.00668
H          2.61582        2.12583        0.64465
H          2.48199        1.87063       -1.09278
H          4.71136        0.69266       -1.09315
H          4.84364        0.94156        0.64596
H          4.77648        3.43775        0.29264
H          4.65175        3.18790       -1.44607
H          6.89318        2.03570       -1.44430
H          7.01511        2.27346        0.29748
H          6.91127        4.77116       -0.03821
H          6.80152        4.53211       -1.77932
H          9.06446        3.42570       -1.77543
H          9.17068        3.64452       -0.02948
H          9.01162        6.14222       -0.33369
H          8.91676        5.92462       -2.07854
H         11.20845        4.88782       -2.08496
H         11.30003        5.06835       -0.33226
H         11.06822        7.56445       -0.57299
H         10.97625        7.39266       -2.32337
H         13.30411        6.46836       -2.38491
H         13.37306        6.53890       -0.61686
H         13.07940        9.03419       -0.69242
H         12.89317        8.99392       -2.43807
H         15.33097        7.21618       -0.47517
H         17.11159        6.61858        0.54866
H         18.57250        7.60576        0.46813
H         19.39518        6.38716       -1.49538
H         17.84087        5.59009       -1.74750
H         18.04882        4.33796        0.36620
H         19.52837        5.20242        0.80118
H         20.80502        4.10825       -0.99359
H         19.31524        3.44422       -1.73330
H         21.71036        1.26747       -0.31678
H         14.78552       10.33008       -3.17966
H         16.79466       11.56042       -4.00417
H         19.23190       11.93163       -3.94594
H         19.73862        8.72835       -1.12274
H         21.43794       11.03232       -3.46948
H         21.70967        9.74822       -2.27831
H         20.81084       12.61180       -1.61125
H         21.25951       11.18347        2.42143
H         22.19772        9.65605        2.47413
H         19.00806       10.14157        1.82848
H         23.13694       12.47799       -2.61709
H         23.64069       11.49109       -1.22338
H         25.10723       15.40120        0.71137
H         23.31191       15.35671        0.73229
H         25.27484       16.43787       -1.68830
