87

C          0.71046       -2.43130        3.94458
C          2.20288       -2.75627        3.84497
C          2.79515       -2.45397        2.46288
C          4.28936       -2.78331        2.36204
C          4.87407       -2.49939        0.97205
C          6.41115       -2.61033        0.87425
P          7.10138       -4.22059        1.35832
C          6.44148       -5.56673        0.29904
O          6.54862       -6.74181        1.06118
C          6.08964       -7.93682        0.47520
C          5.83163       -8.02352       -0.89424
C          5.40630       -9.22903       -1.47032
C          5.13336       -9.32430       -2.94892
C          5.24878      -10.33417       -0.62648
C          5.50294      -10.22505        0.73980
C          5.92655       -9.03194        1.34285
C          6.15633       -8.99869        2.84828
C          7.62475       -8.75013        3.23967
C          5.19600       -8.04276        3.58208
C          8.91430       -4.21464        1.41216
C          9.48746       -5.45384        2.12778
C         11.01474       -5.38101        2.20804
S         11.59246       -6.81408        3.15872
C         13.24446       -6.27338        3.66336
S         13.87118       -4.79848        3.21249
N         13.88169       -7.19385        4.42367
C         13.29606       -8.50695        4.75454
C         13.46497       -9.59065        3.67654
C         14.91151       -9.97247        3.34335
C         14.99211      -11.11556        2.32816
C         15.23692       -6.90699        4.93996
C         15.26869       -6.06341        6.22136
C         14.58260       -6.68767        7.44175
C         14.76440       -5.85004        8.71031
H          0.32006       -2.65988        4.94487
H          0.12376       -3.01264        3.21846
H          0.51862       -1.36613        3.74981
H          2.36542       -3.82110        4.08422
H          2.75685       -2.18546        4.60921
H          2.64164       -1.38811        2.22188
H          2.24237       -3.02232        1.69488
H          4.42834       -3.84691        2.62860
H          4.84343       -2.20197        3.12033
H          4.62184       -1.47079        0.67093
H          4.40163       -3.15093        0.21996
H          6.90351       -1.87759        1.53497
H          6.77101       -2.40692       -0.14710
H          6.65390       -4.52790        2.66209
H          7.04713       -5.57588       -0.62818
H          5.39693       -5.32626        0.02461
H          5.96181       -7.15947       -1.54692
H          5.31778       -8.37050       -3.45929
H          4.08997       -9.61326       -3.14075
H          5.76998      -10.08704       -3.41973
H          4.92040      -11.28908       -1.03971
H          5.36397      -11.09931        1.37911
H          5.90735      -10.01555        3.19258
H          7.93462       -7.72182        3.01704
H          8.30120       -9.43085        2.70576
H          7.76327       -8.91206        4.31783
H          5.40179       -6.99089        3.33692
H          5.30096       -8.15938        4.66983
H          4.15064       -8.25339        3.31921
H          9.20402       -3.28554        1.93055
H          9.27318       -4.12932        0.37359
H          9.16955       -6.36744        1.60483
H          9.07265       -5.51377        3.14633
H         11.37365       -4.47739        2.72429
H         11.47299       -5.39415        1.20873
H         12.22803       -8.36433        4.98271
H         13.76813       -8.83389        5.69017
H         12.94675       -9.27704        2.75687
H         12.92504      -10.48115        4.04153
H         15.44043      -10.26323        4.26706
H         15.44417       -9.09435        2.94436
H         14.50237      -12.02393        2.70898
H         16.03450      -11.37236        2.09750
H         14.49989      -10.84457        1.38249
H         15.78815       -6.38824        4.14412
H         15.71723       -7.87899        5.11454
H         14.83608       -5.07381        6.00940
H         16.33366       -5.88819        6.44966
H         14.98304       -7.70190        7.61487
H         13.50544       -6.81075        7.23966
H         15.82843       -5.74311        8.96720
H         14.25944       -6.30877        9.57109
H         14.35314       -4.83791        8.58229
