50

C          1.03424       -0.51033       -0.16452
O          2.38781       -0.79333        0.17353
C          2.92826        0.13867        1.08895
C          4.34090       -0.33176        1.40657
O          4.95288        0.65276        2.24841
C          6.27224        0.33412        2.60538
C          6.78836        1.45340        3.51328
C          8.29034        1.40756        3.77871
C          8.78271        2.39561        4.83082
C         10.30949        2.36654        5.03581
C         10.83739        1.15459        5.85303
C         10.16779        0.98562        7.18566
C         10.42765        1.62414        8.33015
Br        11.78604        2.93437        8.46945
Br         8.75617       -0.32121        7.24291
C         11.03852        2.53985        3.68606
C         10.55614        1.64389        2.53038
N          9.02784        1.73269        2.47445
C         10.94549        0.15773        2.50233
C         12.42595       -0.16739        2.37585
C         13.46723        0.72886        1.84701
O         13.34901        0.47718        3.26382
H          0.71897       -1.27710       -0.88087
H          0.93481        0.48591       -0.63197
H          0.37986       -0.55251        0.72450
H          2.32639        0.18796        2.01745
H          2.96054        1.15822        0.65577
H          4.91548       -0.44599        0.46816
H          4.31420       -1.31209        1.91543
H          6.89474        0.22858        1.68064
H          6.33016       -0.64357        3.12522
H          6.27589        1.39306        4.48381
H          6.50278        2.42733        3.07932
H          8.59479        0.38318        4.03991
H          8.26039        2.18044        5.77227
H          8.47120        3.41374        4.53644
H         10.55946        3.25645        5.63300
H         11.91418        1.31243        6.01901
H         10.74960        0.21132        5.30083
H          9.90241        1.44690        9.26509
H         12.11583        2.37225        3.81225
H         10.91691        3.58678        3.36174
H         10.88195        2.09677        1.58127
H          8.66902        1.11669        1.72998
H          8.76283        2.69287        2.21007
H         10.45311       -0.31391        1.63272
H         10.56656       -0.37074        3.38918
H         12.59917       -1.24509        2.27089
H         13.22678        1.75037        1.53512
H         14.35094        0.29649        1.37119
