58

C          1.86672        8.53959       -3.42722
C          3.32948        8.43650       -2.99262
C          3.65333        7.10861       -2.29927
C          5.12209        6.99439       -1.87614
C          5.42108        5.67068       -1.19490
O          6.82951        5.60322       -0.89077
C          7.18905        4.39840       -0.25147
C          8.70790        4.35409       -0.08733
C          9.26446        2.96622        0.35736
C          8.28859        2.03815        1.11903
C          8.96249        0.76287        1.53170
C          9.37574        0.39840        2.75135
Br         9.16402        1.48604        4.29590
Br         9.29178       -0.47159        0.10878
N         10.37699        3.36555        1.24131
C         10.18138        4.63232        1.67052
N         10.86765        5.17295        2.68434
N          9.24352        5.26778        0.96269
C          9.02571        6.73045        0.99598
C         10.22134        7.57831        0.52431
C         10.70328        7.32699       -0.91168
C          9.71326        7.73931       -2.00662
C         10.25380        7.50180       -3.42110
C          9.26725        7.91497       -4.51464
H          1.66280        9.49821       -3.92190
H          1.18782        8.45866       -2.56570
H          1.60394        7.73831       -4.13332
H          3.57453        9.26932       -2.31262
H          3.98687        8.55522       -3.86994
H          3.40102        6.27537       -2.97760
H          3.00192        6.99185       -1.41590
H          5.38014        7.81939       -1.19241
H          5.77435        7.09563       -2.75847
H          5.15649        4.82064       -1.85265
H          4.83859        5.56619       -0.25955
H          6.88838        3.52912       -0.87131
H          6.68356        4.29847        0.72956
H          9.15808        4.63881       -1.05218
H          9.66284        2.42596       -0.51170
H          7.43743        1.79252        0.46838
H          7.90206        2.54412        2.01624
H          9.85121       -0.55444        2.97088
H         10.76552        2.66616        1.87229
H         11.55124        4.63046        3.19590
H         10.73675        6.14157        2.94428
H          8.74305        7.00610        2.02541
H          8.14370        6.91065        0.37202
H         11.07332        7.45577        1.21230
H          9.90735        8.62947        0.63019
H         10.97898        6.26418       -1.03464
H         11.64333        7.88355       -1.05173
H          9.47186        8.80975       -1.88562
H          8.75972        7.19749       -1.89129
H         10.51029        6.43465       -3.53827
H         11.19945        8.05448       -3.54617
H          8.32728        7.34770       -4.43915
H          9.68187        7.73921       -5.51596
H          9.01736        8.98329       -4.44110
