62

O          6.50533        1.82873        5.86731
C          5.67270        0.77106        6.38149
C          4.39713        0.55876        5.56709
O          4.62780        0.37728        4.17044
C          5.18140       -0.87620        3.77560
C          5.74091       -0.65866        2.36970
N          6.66199        0.50546        2.34740
C          7.91509        0.36291        2.88316
N          8.36407        0.89389        4.02703
N          9.67633        0.61570        4.24618
C         10.03822       -0.11746        3.21510
N          8.97392       -0.29281        2.33585
C          8.98754       -1.03883        1.06446
C          8.53355       -0.24788       -0.16615
C          9.33265        1.02296       -0.47722
S         11.10984        0.73217       -0.69772
C         11.85132        1.77724        0.58501
S         10.96136        2.75937        1.59799
N         13.19792        1.66674        0.62691
C         13.98247        2.42146        1.62396
C         14.40611        3.80462        1.12958
C         13.98521        0.83632       -0.30061
C         14.26998       -0.57336        0.22778
C         11.41435       -0.65309        3.04049
C         11.72718       -1.97834        3.78127
C         10.87932       -3.18128        3.33694
O          9.48342       -3.03059        3.63289
O         13.11313       -2.27731        3.65232
H          6.09744        2.69079        6.04602
H          5.40443        0.96203        7.43302
H          6.31171       -0.12334        6.37130
H          3.75280        1.44855        5.63105
H          3.83353       -0.29078        5.99647
H          4.40911       -1.66624        3.76870
H          5.99085       -1.19573        4.45736
H          4.92830       -0.43570        1.66605
H          6.25905       -1.55835        2.01516
H          6.17904        1.29766        2.77842
H          7.78719        1.40038        4.72857
H          8.38256       -1.94608        1.19565
H         10.02424       -1.36218        0.92126
H          7.47595        0.03862       -0.07564
H          8.58945       -0.95457       -1.00847
H          9.26833        1.77701        0.33035
H          8.95983        1.48035       -1.40215
H         14.86215        1.80633        1.86404
H         13.36839        2.50966        2.52903
H         14.99626        3.74303        0.20471
H         15.02766        4.29369        1.89168
H         13.52876        4.43636        0.94396
H         14.92859        1.37130       -0.48024
H         13.46798        0.79391       -1.26900
H         14.75832       -0.54319        1.21165
H         14.93684       -1.10361       -0.46507
H         13.34158       -1.15493        0.31034
H         12.10027        0.11039        3.42946
H         11.64086       -0.76495        1.97020
H         11.56868       -1.81454        4.85984
H         11.29493       -4.08709        3.80488
H         10.95120       -3.31394        2.24349
H          9.33992       -3.32210        4.54602
H         13.30893       -2.48936        2.72370
