49

C          0.28200       -1.82039        0.76548
C          1.44106       -1.54781        0.57542
N          2.72971       -1.20586        0.34030
C          3.20051       -0.39323       -0.68496
N          4.49554       -0.27739       -0.62535
N          4.86772       -1.02343        0.46248
C          3.82951       -1.64187        1.04261
C          3.76203       -2.44844        2.29619
C          4.59336       -3.74367        2.30608
C          4.50651       -4.45543        0.95262
O          4.00464       -3.87009       -0.02059
N          5.05994       -5.68957        0.91319
C          5.27162       -6.56108       -0.18952
C          5.97802       -7.74329        0.08086
C          6.24286       -8.64784       -0.94385
C          5.80618       -8.38063       -2.24472
C          5.10236       -7.20348       -2.50680
C          4.82673       -6.28549       -1.49074
C          6.29410       -1.16996        0.75670
C          6.96056       -2.15415       -0.22458
C          8.24356       -2.71845        0.36658
C          8.94351       -3.86324       -0.45146
C          9.33114       -3.61346       -1.96028
C         10.26058       -2.39248       -2.29707
F         11.35063       -2.38425       -1.51768
F         10.63354       -2.47051       -3.58108
F          9.58304       -1.23322       -2.11894
F          9.95329       -4.73641       -2.38551
F          8.17738       -3.45678       -2.67398
F         10.05812       -4.23074        0.22144
F          8.07694       -4.92092       -0.46576
F          9.15225       -1.72611        0.60513
F          7.96117       -3.28971        1.59797
H         -0.74673       -2.06974        0.93380
H          2.55035        0.07919       -1.41377
H          2.69964       -2.68459        2.44707
H          4.06406       -1.80720        3.13985
H          4.22856       -4.38611        3.11995
H          5.65202       -3.54066        2.52743
H          5.44339       -6.03425        1.79009
H          6.32332       -7.95217        1.09645
H          6.79139       -9.56356       -0.72350
H          6.01145       -9.08789       -3.04807
H          4.75529       -6.99005       -3.51795
H          4.27217       -5.37557       -1.69987
H          6.38276       -1.50873        1.79460
H          6.73622       -0.16922        0.68770
H          7.18222       -1.65017       -1.17275
H          6.28439       -2.99014       -0.44560
