71

C          1.02613        3.81756       -1.42820
C          2.31060        2.99118       -1.33068
C          2.74985        2.73808        0.11705
C          4.03371        1.93531        0.24603
O          5.11429        2.71726       -0.30828
C          6.34170        2.04445       -0.31985
N          7.31512        2.94385       -0.93857
C          7.72903        4.15779       -0.20994
O          7.19997        5.31509       -0.82562
C          7.69560        5.52035       -2.13716
N          7.72842        4.21558       -2.83168
C          7.40042        3.05183       -2.27959
N          7.16520        1.96664       -3.09436
C          8.18138        0.90764       -3.16894
C          9.32132        1.38360       -4.11737
O          9.24907        2.53323       -4.58854
N         10.33345        0.53292       -4.38771
C         11.42085        0.96743       -5.28770
C         11.32538        0.39815       -6.70967
C         10.06062        0.80085       -7.47760
C         10.05792        0.29124       -8.92103
C         10.41241       -0.83609       -3.88650
C          9.05374        6.22425       -2.19539
C          9.48271        6.56185       -3.62953
O         10.73750        7.26603       -3.63872
C         10.64757        8.63343       -3.48416
O          9.58910        9.20393       -3.32617
C         12.01046        9.28142       -3.52002
C         12.32897       10.00374       -2.19514
C         12.40870        9.06008       -0.99340
H          0.73101        3.97490       -2.47404
H          1.15257        4.80780       -0.96673
H          0.18790        3.32062       -0.91852
H          3.12191        3.50508       -1.86992
H          2.16745        2.02192       -1.83803
H          1.96155        2.18892        0.65792
H          2.87850        3.69500        0.64869
H          3.96138        0.97867       -0.30678
H          4.25347        1.70443        1.30435
H          6.29535        1.11093       -0.90587
H          6.70212        1.80728        0.69933
H          8.83104        4.18346       -0.16994
H          7.31440        4.11753        0.80153
H          6.93013        6.14293       -2.62885
H          8.17427        4.12375       -3.75178
H          6.95002        2.29176       -4.03824
H          7.70332       -0.00903       -3.54006
H          8.56602        0.69834       -2.16158
H         12.36756        0.65961       -4.81832
H         11.38959        2.06301       -5.31320
H         11.41909       -0.70076       -6.68950
H         12.21588        0.75806       -7.25021
H          9.96402        1.89834       -7.46620
H          9.17024        0.41449       -6.95275
H         10.90617        0.69853       -9.48957
H          9.13800        0.58278       -9.44476
H         10.12872       -0.80580       -8.96132
H          9.64879       -1.03298       -3.12944
H         11.39714       -1.00294       -3.42690
H         10.28318       -1.56279       -4.70195
H          9.82903        5.61163       -1.71137
H          8.94352        7.15721       -1.62580
H          8.71685        7.17708       -4.12583
H          9.67798        5.65858       -4.22549
H         11.99221       10.01249       -4.34263
H         12.77274        8.52572       -3.75141
H         11.56398       10.77471       -2.02111
H         13.28480       10.53256       -2.32146
H         11.44475        8.56315       -0.80413
H         12.67783        9.60679       -0.08009
H         13.16413        8.27518       -1.14754
