115

C          2.37921        6.65472        4.77909
C          3.79353        6.26222        4.34455
C          4.11161        6.64093        2.89390
C          5.53727        6.28452        2.46182
C          5.83931        6.61770        0.99702
C          7.28892        6.33443        0.59177
C          7.59229        6.62506       -0.88174
C          9.06821        6.43495       -1.24306
C          9.39555        6.67910       -2.72009
C         10.89756        6.60602       -3.01351
C         11.26734        6.75774       -4.49259
C         12.78107        6.82942       -4.72162
C         13.19274        6.85911       -6.19726
C         14.69013        7.11710       -6.40009
C         15.14512        6.99919       -7.85927
C         16.57579        7.50206       -8.08766
C         17.10589        7.20565       -9.49819
C         18.39195        7.98835       -9.78156
N         19.08692        7.60833      -11.03575
C         18.46526        7.67980      -12.22369
N         17.42490        8.52434      -12.39550
N         18.86279        6.95134      -13.29102
C         19.28544        5.53653      -13.27195
C         18.12235        4.54950      -13.13705
C         18.62331        3.10208      -13.19918
C         17.52713        2.04864      -13.01048
C         18.07165        0.61926      -13.09873
C         17.01852       -0.47105      -12.88185
C         17.59068       -1.88653      -13.01388
C         16.58787       -2.99695      -12.68705
C         17.16937       -4.40519      -12.85018
C         16.20390       -5.52305      -12.44566
C         16.78885       -6.92992      -12.61333
C         15.83215       -8.04043      -12.17301
C         20.54697        7.38574      -10.94158
C         21.33560        8.63805      -10.50754
C         22.82306        8.24086      -10.40107
C         23.72464        9.31913       -9.79451
C         21.09682        9.80950      -11.46764
H          2.17954        6.35980        5.81861
H          1.61844        6.17416        4.14580
H          2.22719        7.74221        4.70777
H          3.93095        5.17497        4.47263
H          4.53018        6.73874        5.01373
H          3.95063        7.72515        2.75695
H          3.38948        6.14360        2.22206
H          5.71365        5.20783        2.63356
H          6.25661        6.81348        3.11203
H          5.61256        7.68241        0.81046
H          5.15585        6.04610        0.34452
H          7.53122        5.27937        0.81094
H          7.96481        6.93449        1.22669
H          7.28995        7.66002       -1.12074
H          6.96805        5.97427       -1.51923
H          9.38386        5.41314       -0.96752
H          9.67886        7.11357       -0.62125
H          9.01307        7.66971       -3.02347
H          8.85752        5.94337       -3.34340
H         11.29468        5.64471       -2.64175
H         11.41386        7.38774       -2.42832
H         10.79464        7.66805       -4.90155
H         10.84394        5.91391       -5.06520
H         13.26674        5.96800       -4.23007
H         13.17776        7.72619       -4.21351
H         12.61889        7.64147       -6.72489
H         12.91137        5.90418       -6.67483
H         15.27439        6.41311       -5.78246
H         14.93444        8.12455       -6.01982
H         14.45807        7.57257       -8.50671
H         15.06146        5.94783       -8.18496
H         17.25480        7.05367       -7.34288
H         16.60182        8.59051       -7.90320
H         16.32713        7.44963      -10.23710
H         17.31137        6.12857       -9.60634
H         19.11523        7.78960       -8.98011
H         18.21165        9.07785       -9.74831
H         17.25005        9.27423      -11.73868
H         16.72015        8.34614      -13.10009
H         18.50821        7.28297      -14.18384
H         20.00316        5.38055      -12.45820
H         19.83468        5.36846      -14.20901
H         17.38688        4.72869      -13.93927
H         17.60093        4.73192      -12.18173
H         19.40122        2.95401      -12.42954
H         19.12354        2.93500      -14.16876
H         16.74104        2.19256      -13.77177
H         17.03658        2.19848      -12.03281
H         18.87753        0.49326      -12.35430
H         18.54873        0.47514      -14.08394
H         16.19324       -0.33856      -13.60308
H         16.56824       -0.34949      -11.88081
H         18.46709       -1.98647      -12.34925
H         17.97457       -2.02851      -14.03944
H         15.69619       -2.89121      -13.32967
H         16.22948       -2.86803      -11.65038
H         18.09199       -4.48850      -12.24867
H         17.48117       -4.55138      -13.89941
H         15.27618       -5.44090      -13.03932
H         15.90083       -5.37871      -11.39332
H         17.72745       -7.00228      -12.03776
H         17.07124       -7.08166      -13.66900
H         15.56328       -7.93799      -11.11098
H         16.27976       -9.03484      -12.30686
H         14.89752       -8.01679      -12.75311
H         20.91041        7.07873      -11.92853
H         20.72444        6.55586      -10.24020
H         21.00237        8.93691       -9.49798
H         23.19350        7.96851      -11.40479
H         22.89885        7.32629       -9.78981
H         23.78238       10.21641      -10.42499
H         24.74803        8.94125       -9.67514
H         23.36790        9.62767       -8.80110
H         21.42343        9.55949      -12.48907
H         21.65226       10.70052      -11.15137
H         20.03737       10.10007      -11.51458
