105

C          5.37631       -2.59114       -1.87944
C          6.25135       -1.33573       -1.89981
C          5.83145       -0.28685       -0.86404
C          6.71126        0.96724       -0.86351
C          6.29853        1.99681        0.19173
C          7.18033        3.25063        0.21495
C          6.76884        4.22769        1.31895
C          7.62555        5.49943        1.34517
N          7.30070        6.36035        2.49831
C          6.34159        7.29725        2.46462
S          5.92446        8.24301        3.80784
S          5.60435        7.51865        0.85222
C          4.28064        8.70325        1.19995
C          3.03762        8.03628        1.81643
C          2.36028        8.94011        2.85772
N          1.40255        8.19972        3.70160
C          0.01465        8.15615        3.20086
C         -1.01026        7.63022        4.23158
C         -0.41591        7.80110        5.63164
N          0.85335        7.03636        5.65871
C          1.82711        7.57019        4.80249
N          3.10373        7.57460        5.15882
C          0.75523        5.77266        6.29041
O         -0.24076        5.48576        6.91523
C          1.84127        4.63381        6.22725
C          1.50614        3.48232        5.19343
C          1.64842        3.80177        3.66220
C          3.11686        3.95123        3.14638
O          3.67989        5.01538        3.17489
O          3.68044        2.83203        2.68187
F          1.04116        2.77719        2.98926
F          0.96274        4.95147        3.38677
F          2.35855        2.45107        5.45624
F          0.23978        3.07027        5.41393
F          3.12274        5.05089        5.99566
F          1.82982        4.05333        7.44775
C         -2.33165        8.29702        4.07005
N         -3.37453        7.85121        3.44247
N         -4.36571        8.82275        3.56612
C         -3.83823        9.80052        4.25742
O         -2.52660        9.54487        4.61857
S         -4.60528       11.29732        4.66695
C         -3.56293       11.89344        6.05883
C         -4.19703       13.16998        6.60668
C          8.08731        6.10455        3.71880
C          9.37349        6.93654        3.76783
C         10.21366        6.63578        5.01269
C         11.50549        7.45795        5.06710
C         12.37355        7.16621        6.29502
C         13.65545        8.00364        6.34126
C         14.54521        7.71041        7.55402
C         15.82109        8.55521        7.58281
H          5.70232       -3.32156       -2.63193
H          4.32327       -2.34875       -2.08775
H          5.41244       -3.08808       -0.89836
H          6.22546       -0.88298       -2.90523
H          7.30329       -1.61593       -1.72273
H          5.84854       -0.74360        0.14189
H          4.78090        0.00336       -1.04649
H          6.68466        1.43471       -1.86318
H          7.76217        0.67461       -0.69476
H          6.31961        1.52388        1.18971
H          5.24921        2.29676        0.02219
H          7.13277        3.75290       -0.76660
H          8.23427        2.95509        0.35558
H          6.83896        3.72828        2.29905
H          5.71366        4.51351        1.19686
H          7.51419        6.07583        0.41489
H          8.69336        5.24986        1.42566
H          4.06985        9.16774        0.22702
H          4.70521        9.46644        1.86835
H          3.33821        7.10338        2.30900
H          2.32317        7.75514        1.02898
H          1.80034        9.76069        2.38853
H          3.11973        9.39236        3.51219
H         -0.02060        7.54783        2.28564
H         -0.23260        9.19026        2.92116
H         -1.19459        6.56027        4.06222
H         -1.06905        7.39098        6.40538
H         -0.19114        8.85106        5.86214
H          3.35407        7.18062        6.05728
H          3.90787        7.74793        4.50817
H          3.04905        2.08605        2.68902
H         -2.54801       12.08012        5.68546
H         -3.52658       11.10489        6.82167
H         -4.25483       13.95498        5.84066
H         -3.58691       13.55349        7.43509
H         -5.20933       12.98572        6.98963
H          8.31863        5.02862        3.72785
H          7.44968        6.32792        4.58339
H          9.10327        8.00405        3.74606
H          9.97224        6.74390        2.86200
H         10.46203        5.56017        5.04139
H          9.61298        6.83462        5.91708
H         11.25241        8.53219        5.04517
H         12.09487        7.26869        4.15292
H         12.63653        6.09366        6.30993
H         11.78505        7.34539        7.21205
H         13.38993        9.07592        6.33783
H         14.23474        7.83533        5.41603
H         14.81130        6.63970        7.55842
H         13.96726        7.88097        8.47808
H         16.43497        8.38233        6.68632
H         16.44120        8.32001        8.45866
H         15.58841        9.62986        7.61964
