51

O          3.24776       -0.78480        2.68858
C          2.34775       -0.45015        1.62483
C          2.88158        0.81406        0.93240
C          4.40272        0.90548        0.88387
C          5.02681        2.04879        0.05328
C          6.43426        1.51777       -0.36402
C          6.54783        0.12230        0.25613
N          5.11235       -0.34645        0.35788
C          4.59678       -0.93331       -0.93041
C          5.01417       -2.40094       -1.04367
O          4.62877       -2.97507        0.21651
C          4.34195       -3.07536       -2.23361
C          5.04085        3.40650        0.77336
C          5.88417        3.42591        2.05937
O          6.44556        2.39211        2.45963
N          5.99081        4.60488        2.72877
C          5.35505        5.86272        2.31692
C          3.98989        6.09987        2.96910
C          6.78534        4.62922        3.97014
C          8.26024        4.95255        3.72600
H          2.87372       -1.52185        3.19510
H          1.33144       -0.25807        2.00487
H          2.27941       -1.28921        0.90926
H          2.55358        1.70113        1.49508
H          2.42864        0.90177       -0.06761
H          4.78672        0.97794        1.90887
H          4.42164        2.18770       -0.85729
H          7.24276        2.14985        0.01616
H          6.52675        1.48204       -1.45769
H          6.93234        0.18344        1.28049
H          7.13388       -0.59988       -0.32263
H          5.00523       -1.09498        1.06758
H          4.97587       -0.34315       -1.77249
H          3.50303       -0.86677       -0.91594
H          6.11297       -2.46603       -1.15856
H          4.92292       -3.89872        0.25446
H          3.24854       -3.04884       -2.13098
H          4.65637       -4.12515       -2.30579
H          4.62219       -2.58411       -3.17618
H          4.00992        3.72424        0.99670
H          5.42773        4.15937        0.06933
H          5.26797        5.88767        1.22325
H          6.04663        6.67638        2.58063
H          3.26888        5.32002        2.68751
H          3.58225        7.06986        2.65402
H          4.06602        6.10750        4.06457
H          6.68562        3.64569        4.44499
H          6.32811        5.37419        4.63679
H          8.72875        4.17875        3.10458
H          8.79895        4.99441        4.68226
H          8.38720        5.92436        3.22861
