74

C          0.96002       11.49892       -1.43774
C          2.48634       11.38780       -1.45383
C          2.98992        9.94306       -1.36055
C          4.51715        9.82414       -1.36327
C          5.01426        8.37816       -1.26121
C          6.54310        8.26361       -1.23963
C          7.01370        6.82816       -1.07827
O          8.44953        6.80713       -1.04113
C          8.97022        5.55578       -0.65581
C         10.50109        5.64328       -0.53807
C         11.09361        4.23214       -0.33111
C         12.60831        4.11656       -0.56851
C         13.16540        2.68967       -0.42610
C         12.59475        1.64871       -1.40861
C         12.72821        2.01694       -2.89587
C         14.17963        2.20551       -3.35341
C         14.26740        2.78095       -4.76369
O         15.64232        2.96925       -5.17163
C         16.24753        4.10663       -4.71453
O         15.68762        4.93661       -4.01740
C         17.65109        4.15797       -5.18939
C         18.45657        5.17436       -4.86193
N         10.73194        3.77920        1.03241
C         10.58300        4.61592        2.06551
N         10.23935        4.13328        3.28325
N         10.71733        5.92999        1.88821
C         11.03270        6.55465        0.58744
C         10.54597        8.01881        0.57488
C         11.23815        8.86576        1.60216
C         12.36667        9.57104        1.48356
Br        13.36201        9.62444       -0.12302
Br        10.38514        8.92683        3.33553
H          0.63192       12.54470       -1.50960
H          0.53831       11.08196       -0.51092
H          0.51015       10.95176       -2.27950
H          2.90789       11.97281       -0.61879
H          2.88072       11.84984       -2.37466
H          2.57558        9.35765       -2.20026
H          2.58946        9.47689       -0.44269
H          4.93020       10.41103       -0.52396
H          4.91995       10.28569       -2.28154
H          4.61193        7.79307       -2.10596
H          4.59858        7.91747       -0.34778
H          6.94955        8.86408       -0.40857
H          6.96881        8.68018       -2.16650
H          6.65583        6.19265       -1.91099
H          6.61898        6.39494       -0.13751
H          8.72226        4.77568       -1.40496
H          8.51159        5.23168        0.30213
H         10.89335        6.03553       -1.48811
H         10.57003        3.54537       -1.01299
H         13.14282        4.77364        0.13492
H         12.82112        4.50970       -1.57464
H         13.01489        2.33137        0.60617
H         14.25672        2.74862       -0.54422
H         11.53033        1.45439       -1.18718
H         13.10609        0.69101       -1.22368
H         12.15841        2.93911       -3.10766
H         12.24635        1.23101       -3.49827
H         14.71627        1.24451       -3.31470
H         14.70781        2.89574       -2.68019
H         13.74382        3.74696       -4.82170
H         13.84826        2.09502       -5.51188
H         17.98638        3.32824       -5.81284
H         18.09184        5.99158       -4.23749
H         19.48877        5.21591       -5.20818
H         10.61368        2.78594        1.19579
H         10.30191        3.14173        3.47641
H         10.24211        4.74709        4.08845
H         10.58041        6.55512        2.68646
H         12.13063        6.59157        0.49175
H          9.45803        8.06987        0.69529
H         10.77267        8.42534       -0.42097
H         12.80223       10.16807        2.28083
