60

O          2.34808        1.09181       -0.43899
C          3.57146        1.41240        0.20146
C          3.26389        1.47142        1.69264
O          4.51660        1.65982        2.38102
C          4.37662        1.69688        3.78071
O          5.65208        1.95285        4.35583
C          6.52001        0.89500        4.52123
N          7.54731        0.77286        3.37012
C          8.11003        2.10977        2.86644
C          8.10722        1.99676        1.32731
C          8.05118        0.48171        1.07357
C          7.09505       -0.00202        2.14452
Br         9.80628       -0.40678        1.33989
C          9.22256        2.76825        0.61794
C          9.12916        4.27824        0.87600
C          9.95734        5.18271       -0.04447
C         11.45135        5.51209        0.35047
C         12.56490        4.39295        0.42709
C         12.96081        3.50071       -0.81770
C         13.47194        4.13245       -2.17631
C         14.77316        5.03067       -2.24411
C         16.19036        4.47390       -1.81196
C         16.75655        3.18921       -2.52421
F         16.66518        3.29758       -3.85976
F         18.04867        3.05295       -2.18394
F         16.09399        2.08642       -2.12693
F         17.05925        5.48406       -2.06860
F         16.18259        4.24032       -0.47422
F         14.86598        5.41539       -3.54201
F         14.55732        6.13650       -1.48568
F         13.65638        3.07864       -3.01535
F         12.46537        4.89460       -2.67377
F         13.90927        2.64401       -0.36471
F         11.86206        2.76081       -1.15093
F         13.68500        4.99899        0.87839
F         12.16211        3.49782        1.38988
F         11.89599        6.48171       -0.48035
F         11.39915        6.02571        1.61946
F          9.92889        4.72599       -1.33383
F          9.35202        6.41683       -0.04575
H          2.44815        1.20002       -1.39685
H          3.97743        2.38392       -0.13316
H          4.34318        0.63637        0.02022
H          2.78474        0.52913        2.01197
H          2.57686        2.30546        1.91310
H          3.96969        0.74055        4.16861
H          3.74229        2.53844        4.10156
H          6.01629       -0.08237        4.59075
H          7.12321        1.08529        5.41931
H          8.34571        0.24526        3.75320
H          9.11959        2.21571        3.28152
H          7.46430        2.90808        3.24222
H          7.13316        2.37729        0.96804
H          7.74022        0.21201        0.05997
H          7.13502       -1.07462        2.36101
H          6.06656        0.31815        1.92385
H          9.13764        2.57747       -0.46095
H         10.19377        2.36994        0.93437
H          9.38778        4.53761        1.91284
H          8.09491        4.61909        0.71202
