52

C          2.12472        2.66307        1.23990
O          3.25587        1.87611        0.89737
C          3.81016        2.23780       -0.35444
C          5.02015        1.34457       -0.58537
O          5.57494        1.68402       -1.85376
C          6.73013        0.92951       -2.16381
C          7.18033        1.35617       -3.55397
O          8.40576        0.68078       -3.83908
C          8.90526        0.95271       -5.12849
C         10.20812        0.17085       -5.28427
C         10.87000        0.36030       -6.64937
C         11.98012       -0.66029       -7.03142
C         12.71411        0.06205       -8.16380
N         12.76201        1.48692       -7.68369
C         11.47243        1.78642       -6.90090
N         11.78895        2.59201       -5.72159
N         13.14734        2.35836       -5.29142
N         11.51581        3.97366       -5.80150
C         12.92629       -1.08201       -5.87953
C         13.97730       -2.05339       -6.32475
C         15.27581       -1.82170       -6.54288
Br        16.07359       -0.10602       -6.32464
Br        13.36037       -3.83421       -6.64229
H          1.76744        2.30314        2.21196
H          1.31492        2.55547        0.49485
H          2.38689        3.73391        1.32467
H          4.11988        3.30179       -0.36080
H          3.07601        2.09763       -1.17250
H          4.71380        0.28171       -0.56490
H          5.76286        1.49944        0.21996
H          6.51518       -0.15678       -2.15161
H          7.54141        1.11877       -1.43323
H          7.32581        2.45318       -3.57919
H          6.40878        1.09645       -4.30220
H          9.07511        2.04368       -5.25468
H          8.17696        0.64570       -5.90845
H          9.97724       -0.89633       -5.14703
H         10.88685        0.46045       -4.46954
H         10.08703        0.24434       -7.41820
H         11.51287       -1.57057       -7.43218
H         12.14561        0.03974       -9.10239
H         13.73537       -0.29132       -8.34774
H         12.95646        2.15973       -8.43087
H         13.47824        1.61145       -6.89888
H         10.80099        2.37730       -7.53475
H         13.11596        2.00110       -4.33242
H         13.59620        3.27940       -5.24097
H         10.62162        4.17356       -5.35341
H         11.50687        4.33711       -6.75858
H         12.32918       -1.54461       -5.08153
H         13.43450       -0.21131       -5.43982
H         15.99180       -2.57618       -6.85778
