128

C         21.89284       14.94525        1.53378
C         21.33602       13.52399        1.41516
C         21.79276       12.59542        2.54609
C         21.24203       11.17000        2.43540
C         21.69816       10.24386        3.56767
C         21.14570        8.81872        3.45936
C         21.59800        7.89710        4.59666
C         21.04699        6.47093        4.49483
C         21.50310        5.55772        5.63736
C         20.95603        4.12948        5.54814
C         21.42127        3.22622        6.69503
C         20.88188        1.79453        6.61440
C         21.36278        0.89679        7.75905
C         20.83362       -0.53905        7.68288
C         21.32773       -1.43068        8.82674
C         20.80424       -2.86908        8.75700
C         21.30654       -3.75175        9.90460
C         20.78339       -5.19091        9.84368
C         21.30169       -6.06180       10.99393
C         20.77572       -7.50545       10.93239
C         21.25388       -8.34134       12.11279
C         22.75759       -8.60625       12.21365
O         22.87179       -9.78372       13.01700
C         21.78254      -10.66872       12.80922
N         20.74587       -9.77476       12.04557
C         22.13621      -11.87476       11.93229
C         22.74865      -11.59545       10.55509
C         23.09548      -12.90142        9.82810
C         23.79013      -12.70314        8.47838
C         24.17963      -14.03189        7.82149
C         24.91103      -13.87699        6.48497
C         25.30587      -15.21895        5.85966
C         26.05278      -15.08597        4.52909
C         26.43165      -16.43413        3.90754
C         27.18330      -16.31090        2.57852
C         27.53749      -17.66169        1.94778
C         28.28543      -17.54008        0.61660
C         28.62446      -18.88852       -0.02870
C         29.36510      -18.75078       -1.36142
C         21.17387      -11.04967       14.16143
C         22.14807      -11.79317       15.07900
O         21.48976      -11.90765       16.32759
C         22.24198      -12.63062       17.28495
C         21.43105      -12.68684       18.57664
F         20.24008      -13.30458       18.39714
F         22.12831      -13.38003       19.50941
F         21.18336      -11.45077       19.06972
H         21.54718       15.58521        0.71008
H         22.99308       14.94596        1.51533
H         21.57988       15.41945        2.47615
H         21.63640       13.08993        0.44630
H         20.23338       13.56008        1.39929
H         21.49113       13.02905        3.51623
H         22.89667       12.56026        2.56400
H         21.54453       10.73652        1.46566
H         20.13833       11.20614        2.41685
H         21.39689       10.67833        4.53732
H         22.80182       10.20642        3.58576
H         21.45060        8.38172        2.49200
H         20.04215        8.85629        3.43743
H         21.29381        8.33601        5.56339
H         22.70161        7.85990        4.61832
H         21.35209        6.02916        3.52972
H         19.94337        6.50631        4.47374
H         21.20031        6.00316        6.60155
H         22.60685        5.52346        5.65671
H         21.25837        3.68153        4.58503
H         19.85224        4.16084        5.53198
H         21.11920        3.67538        7.65767
H         22.52524        3.19826        6.71050
H         21.17865        1.34624        5.64976
H         19.77786        1.81917        6.60788
H         21.06396        1.34428        8.72342
H         22.46696        0.87742        7.76641
H         21.12877       -0.98643        6.71738
H         19.72951       -0.52274        7.68262
H         21.03275       -0.98239        9.79178
H         22.43192       -1.44467        8.82636
H         21.09921       -3.31974        7.79315
H         19.70025       -2.85759        8.76057
H         21.01460       -3.29881       10.86814
H         22.41056       -3.76455        9.89817
H         21.07189       -5.64684        8.88071
H         19.67983       -5.18281        9.86007
H         21.01037       -5.61005       11.95748
H         22.40439       -6.06585       10.97535
H         21.10596       -7.98182        9.99148
H         19.67347       -7.48935       10.91486
H         20.88272       -7.93745       13.06601
H         23.29006       -7.79935       12.72914
H         23.20453       -8.75124       11.21373
H         19.80820       -9.87552       12.45013
H         20.70642      -10.07916       11.06144
H         21.23673      -12.50746       11.83522
H         22.85372      -12.47095       12.51500
H         23.66054      -10.98945       10.67204
H         22.06418      -11.00770        9.91010
H         22.17751      -13.49788        9.68881
H         23.74861      -13.50188       10.48448
H         24.69404      -12.08510        8.61926
H         23.13190      -12.13282        7.79947
H         23.27304      -14.64434        7.67341
H         24.81767      -14.60284        8.51872
H         25.81564      -13.26114        6.63219
H         24.27389      -13.31600        5.77891
H         24.39897      -15.83076        5.70929
H         25.93251      -15.78144        6.57410
H         26.96540      -14.48306        4.68097
H         25.43071      -14.51709        3.81572
H         25.51675      -17.03330        3.75418
H         27.04826      -17.00542        4.62376
H         28.10708      -15.72608        2.73392
H         26.57327      -15.72617        1.86745
H         26.61210      -18.24460        1.79429
H         28.14736      -18.24759        2.65800
H         29.21677      -16.96688        0.77163
H         27.67982      -16.94311       -0.08835
H         27.69408      -19.46175       -0.18058
H         29.23336      -19.48389        0.67280
H         28.76551      -18.19099       -2.09483
H         29.59492      -19.73141       -1.80021
H         30.31644      -18.21245       -1.23525
H         20.28175      -11.67794       14.00935
H         20.86170      -10.13315       14.68707
H         23.09395      -11.22852       15.17757
H         22.38749      -12.79646       14.67767
H         23.20598      -12.13955       17.50858
H         22.43406      -13.66875       16.95839
