57

C         18.15649        0.75941        2.48187
O         17.39223        1.31334        3.54342
C         16.00624        1.07071        3.39330
C         15.29298        1.74851        4.55515
O         13.90486        1.44057        4.44701
C         13.13873        1.97803        5.50840
C         11.69253        1.56567        5.33432
O         11.59045        0.14329        5.48839
C         10.28232       -0.35585        5.30155
C         10.32761       -1.87793        5.11738
C         10.84785       -2.64841        6.33604
C         12.36440       -2.50512        6.52925
O         12.83817       -3.20113        7.67039
C         12.62925       -4.60013        7.54669
C         11.13995       -4.90170        7.40910
N         10.54772       -4.15854        6.22489
C          9.07293       -4.51483        6.04912
C          8.70694       -4.92833        4.61379
C          9.46199       -6.10485        4.10277
C          8.98832       -7.31078        3.76604
F          7.71060       -7.63837        3.88208
F          9.72284       -8.28999        3.28453
F         10.81349       -5.88716        3.93616
C         13.21132       -5.27215        8.79057
O         12.95022       -6.65733        8.68268
C         13.54868       -7.41116        9.74007
H         19.20762        0.99527        2.68531
H         17.86919        1.19416        1.50716
H         18.03612       -0.33874        2.42801
H         15.78927       -0.01686        3.40608
H         15.63263        1.47452        2.43186
H         15.45789        2.84150        4.51912
H         15.70282        1.37530        5.51318
H         13.18747        3.08525        5.51829
H         13.51825        1.62048        6.48698
H         11.33396        1.85401        4.32935
H         11.07258        2.08095        6.09143
H          9.82377        0.08055        4.39423
H          9.62832       -0.09056        6.15854
H         10.94553       -2.11146        4.23492
H          9.29635       -2.18167        4.88731
H         10.32566       -2.33308        7.25355
H         12.59797       -1.44360        6.66010
H         12.88669       -2.85360        5.61409
H         13.15979       -4.98591        6.65064
H         10.58905       -4.56966        8.30034
H         10.97354       -5.97430        7.25034
H         11.04354       -4.50396        5.38535
H          8.48555       -3.64649        6.37244
H          8.86848       -5.34197        6.73939
H          8.84324       -4.08446        3.91814
H          7.63415       -5.16784        4.60759
H         12.74762       -4.83820        9.69922
H         14.29534       -5.05831        8.83112
H         13.29448       -8.46174        9.56296
H         13.15632       -7.10004       10.72343
H         14.64571       -7.29477        9.73663
