49

O          5.26799        1.05313        2.09717
C          5.31186        0.01532        1.22500
O          6.17809       -0.82550        1.34806
C          4.23291        0.00408        0.14903
C          4.28645       -1.18556       -0.81968
C          5.28065       -1.06663       -1.99278
C          6.79677       -1.20113       -1.68950
C          7.65352       -0.37272       -2.64132
N          7.69431       -1.02459       -3.95574
C          7.35396       -2.30493       -4.18010
N          7.23257       -2.70113       -5.46835
N          7.12992       -3.15742       -3.16578
C          7.33580       -2.65070       -1.75661
C          6.75148       -3.55940       -0.67034
C          7.64036       -4.75816       -0.26931
C          6.90566       -5.72470        0.59003
C          7.16371       -6.04001        1.86376
F          8.16535       -5.50677        2.55671
F          6.47242       -6.91083        2.57679
F          5.84712       -6.33612       -0.01706
C          6.68708       -4.52638       -3.46747
C          7.82475       -5.47792       -3.91795
C          7.31148       -6.85636       -4.15164
C          7.03789       -7.39559       -5.34578
F          7.22010       -6.72537       -6.48861
F          6.57462       -8.60954       -5.54980
F          7.07209       -7.58892       -3.03638
H          4.51670        1.64104        1.90056
H          4.27278        0.96178       -0.39868
H          3.26147        0.00296        0.67071
H          3.28556       -1.28903       -1.26335
H          4.45704       -2.10350       -0.24240
H          5.11328       -0.09011       -2.47722
H          4.99254       -1.81399       -2.75014
H          7.00448       -0.84538       -0.67258
H          8.67864       -0.26418       -2.25543
H          7.23584        0.63460       -2.77722
H          7.99235       -0.47597       -4.75468
H          7.22480       -2.01959       -6.21542
H          7.06360       -3.66429       -5.72032
H          8.42805       -2.60541       -1.59898
H          5.74308       -3.90319       -0.94316
H          6.61814       -2.92593        0.21788
H          8.52763       -4.39943        0.27014
H          8.01220       -5.30623       -1.15025
H          5.89416       -4.48900       -4.23075
H          6.21046       -4.93086       -2.57086
H          8.60687       -5.51609       -3.14449
H          8.31902       -5.12069       -4.83172
