64

C          0.99100       -1.42069        0.40942
C          2.47192       -1.04215        0.34207
C          2.98482       -0.37566        1.62344
C          4.46190        0.02378        1.54840
C          4.97263        0.72687        2.81166
C          6.43927        1.15834        2.70020
C          6.93738        1.92552        3.92990
C          8.39991        2.40842        3.74224
C          8.89088        3.25838        4.87192
N          8.47184        4.53979        4.89862
N          8.75647        5.49020        5.78134
C          9.56430        5.13275        6.77568
C         10.07219        3.81804        6.88203
C          9.73615        2.85766        5.93721
C         10.28765        1.44339        5.98512
O         11.11512        1.17769        4.86823
C         12.46335        1.68389        4.99130
C         13.23820        1.28638        3.74767
C         14.70794        1.71844        3.81228
C         15.50291        1.31246        2.56638
C         16.97471        1.72212        2.63781
C          9.89878        6.21719        7.76736
O         10.93629        5.76314        8.59769
C         11.34703        6.75337        9.56610
C         12.53102        6.21066       10.33712
H          0.65581       -1.89283       -0.52381
H          0.36046       -0.53541        0.57928
H          0.79635       -2.12845        1.22852
H          2.64025       -0.36211       -0.50991
H          3.07500       -1.94220        0.13560
H          2.83026       -1.05775        2.47770
H          2.37479        0.52006        1.83550
H          4.61314        0.68807        0.67953
H          5.07520       -0.87333        1.35557
H          4.84772        0.06051        3.68227
H          4.34612        1.61365        3.01148
H          6.56364        1.79348        1.80588
H          7.07640        0.27299        2.53737
H          6.86934        1.29202        4.82885
H          6.28068        2.79340        4.11308
H          8.46367        2.99392        2.80956
H          9.07869        1.55592        3.62042
H          7.85479        4.86634        4.14973
H         10.73238        3.58439        7.71836
H          9.45873        0.71949        5.94630
H         10.82276        1.29085        6.93902
H         12.92252        1.25235        5.90023
H         12.45063        2.78472        5.10757
H         12.75395        1.73190        2.86355
H         13.17365        0.19350        3.62752
H         15.18286        1.27628        4.70503
H         14.77009        2.81317        3.94213
H         15.03416        1.76179        1.67499
H         15.42832        0.22071        2.43196
H         17.08225        2.81204        2.73940
H         17.51804        1.41752        1.73365
H         17.47605        1.25701        3.49915
H          8.98154        6.46431        8.34354
H         10.17783        7.13298        7.20905
H         10.49559        6.97272       10.23578
H         11.60960        7.68629        9.03450
H         12.27095        5.27821       10.85484
H         12.84689        6.94245       11.09230
H         13.38104        6.01981        9.66921
