70

C          2.20237       -1.32452       -1.54637
O          2.24999       -0.84818       -0.19541
C          3.33117       -0.07529        0.18308
C          4.39804        0.21868       -0.67229
C          5.45204        1.01879       -0.22336
C          5.45254        1.51981        1.07662
C          4.38654        1.21657        1.92252
C          3.30780        0.43003        1.50272
C          2.16703        0.19134        2.47350
C          1.89954       -1.31542        2.72337
N          0.38453       -1.51283        2.66587
C         -0.12049       -0.38617        1.78295
C          0.75782        0.81242        2.13088
C          0.69648        1.89429        1.03728
C          1.65230        3.05308        1.22970
C          2.45120        3.47767        0.16035
C          3.36849        4.51382        0.31521
C          3.52414        5.16767        1.54732
C          2.71364        4.74971        2.61247
C          1.78931        3.71483        2.45649
C          4.51575        6.29059        1.70811
C         -0.28981       -1.59150        4.02448
C         -0.11296       -2.96661        4.65735
C         -0.96280       -3.13495        5.92692
N         -0.89575       -4.51341        6.38725
C         -1.86268       -4.81631        7.46213
C         -1.73412       -6.23929        7.94593
C         -2.69602       -7.20856        7.63897
C         -2.59095       -8.52121        8.10398
C         -1.49797       -8.88309        8.89420
C         -0.52016       -7.93879        9.21069
C         -0.63882       -6.62890        8.73854
O          0.30708       -5.66318        9.01845
H          3.04069       -2.00307       -1.76462
H          2.20439       -0.48990       -2.26384
H          1.25946       -1.87567       -1.63535
H          4.41760       -0.16830       -1.68926
H          6.27410        1.24479       -0.90288
H          6.26920        2.14842        1.42913
H          4.36604        1.62915        2.93287
H          2.48703        0.64714        3.41870
H          2.25531       -1.66992        3.69597
H          2.33218       -1.93610        1.93329
H          0.19272       -2.40902        2.20180
H         -1.19247       -0.24461        1.96320
H          0.04780       -0.70034        0.74569
H          0.37710        1.25572        3.06479
H         -0.34194        2.26719        0.99621
H          0.89425        1.43235        0.05885
H          2.37312        2.96855       -0.80259
H          3.98582        4.81337       -0.53427
H          2.80443        5.24544        3.58117
H          1.17367        3.42663        3.31238
H          4.16899        7.19840        1.19148
H          5.49158        6.02862        1.27589
H          4.66730        6.54781        2.76378
H         -1.35439       -1.38244        3.84944
H          0.12110       -0.78031        4.64025
H          0.94659       -3.15425        4.89504
H         -0.42591       -3.74981        3.94568
H         -2.01713       -2.91598        5.68477
H         -0.65719       -2.38376        6.68970
H          0.04204       -4.71925        6.73982
H         -2.87369       -4.66843        7.05229
H         -1.75442       -4.12379        8.32246
H         -3.55089       -6.91805        7.02460
H         -3.35736       -9.25469        7.85518
H         -1.40104       -9.90239        9.26892
H          0.33701       -8.21803        9.82927
H          0.96905       -6.04202        9.61907
