59

C          0.73819       -1.11394        1.57635
C          2.17331       -0.85946        1.11121
C          2.90045       -2.13613        0.67637
C          4.33299       -1.88922        0.19408
C          5.07082       -3.17004       -0.20749
C          6.49611       -2.91463       -0.70682
C          7.24276       -4.19938       -1.08421
C          8.65944       -3.92206       -1.60755
C          9.37813       -5.22569       -1.95788
S         11.03707       -4.92201       -2.68749
C         12.19610       -5.23053       -1.27354
C         13.62658       -5.20726       -1.85440
O         14.27877       -6.22042       -1.99083
O         13.99639       -3.96023       -2.16659
C         15.36652       -3.77976       -2.68962
C         16.34276       -3.53504       -1.55752
C         11.97133       -4.21283       -0.15733
C         11.32454       -6.43821       -3.68238
C         10.49880       -6.41311       -4.96144
O         10.73594       -5.18340       -5.60374
C         10.11322       -5.08800       -6.90334
C         10.41346       -3.72077       -7.48095
H          0.24657       -0.18375        1.89109
H          0.71290       -1.80937        2.42860
H          0.13167       -1.55522        0.77175
H          2.74516       -0.37683        1.92172
H          2.16884       -0.14122        0.27405
H          2.32429       -2.62806       -0.12689
H          2.91615       -2.84947        1.51895
H          4.90212       -1.37669        0.98946
H          4.31495       -1.19365       -0.66301
H          4.49752       -3.69190       -0.99334
H          5.10248       -3.85872        0.65467
H          7.06653       -2.37783        0.07080
H          6.46267       -2.24236       -1.58127
H          6.67006       -4.74653       -1.85265
H          7.29558       -4.86504       -0.20573
H          9.22885       -3.35948       -0.85231
H          8.60767       -3.28326       -2.50312
H          8.83597       -5.77511       -2.74220
H          9.51029       -5.89732       -1.09701
H         12.00665       -6.25997       -0.93966
H         15.27294       -2.91194       -3.35271
H         15.62619       -4.67185       -3.27319
H         16.04924       -2.66150       -0.96097
H         17.33698       -3.33660       -1.98094
H         16.42550       -4.41148       -0.90240
H         12.08544       -3.18315       -0.51554
H         12.72658       -4.38684        0.62143
H         10.98648       -4.33499        0.30933
H         11.10526       -7.31470       -3.05778
H         12.39902       -6.41350       -3.90926
H          9.41945       -6.56199       -4.75295
H         10.82523       -7.27468       -5.57747
H          9.02437       -5.24715       -6.79587
H         10.51108       -5.89161       -7.54904
H         10.00488       -2.92413       -6.84567
H          9.95881       -3.63175       -8.47623
H         11.49540       -3.56744       -7.58493
