60

S          2.12815       -1.02449       -1.23377
C          3.29255       -0.55807       -0.14922
N          3.79984       -1.30969        0.86457
C          3.46617       -2.73953        0.97298
C          2.53503       -2.97394        2.16115
O          3.12042       -2.48584        3.37036
C          3.38196       -1.09425        3.27493
C          4.33945       -0.76702        2.11903
S          3.88818        1.12081       -0.34105
C          5.72122        1.04793       -0.15665
C          6.31210        1.99092       -1.21023
C          7.84754        2.06301       -1.15874
C          8.50416        3.01517       -2.16513
C          8.10080        4.48804       -2.04300
O          8.75174        5.28751       -3.01899
C          8.36070        4.92311       -4.33297
C          8.78112        3.49151       -4.67415
N          8.18856        2.57890       -3.59880
C          8.34962        3.03783       -6.06724
C          8.89316        1.66635       -6.50124
C          8.55770        1.38991       -7.97085
S          9.27240       -0.20288       -8.46495
C          9.25634       -0.06742      -10.23780
S          8.84884        1.27727      -11.08371
N          9.67218       -1.26119      -10.83461
C          9.80221       -2.52848      -10.24434
N         10.21269       -3.42149      -11.10038
C         10.37180       -2.74224      -12.30523
C         10.03971       -1.42496      -12.17458
H          4.40739       -3.29271        1.12414
H          2.99093       -3.05149        0.03515
H          2.36533       -4.04814        2.30904
H          1.56298       -2.47939        1.97717
H          3.83418       -0.79168        4.22939
H          2.43824       -0.53141        3.13383
H          5.32935       -1.21266        2.31067
H          4.43738        0.32044        2.03217
H          6.04057        0.00961       -0.32362
H          6.03798        1.34920        0.85304
H          5.87993        2.99330       -1.06450
H          5.95578        1.64295       -2.19640
H          8.27801        1.05492       -1.28707
H          8.17439        2.39324       -0.16012
H          9.59972        2.94702       -2.09013
H          8.41450        4.86334       -1.06028
H          7.00265        4.60719       -2.12048
H          8.86343        5.61694       -5.01868
H          7.26559        5.04480       -4.46527
H          9.87120        3.39827       -4.54984
H          8.51953        1.61508       -3.74581
H          7.16265        2.54736       -3.71423
H          8.71391        3.80456       -6.76928
H          7.24873        3.06313       -6.14648
H          8.47533        0.85814       -5.87343
H          9.98672        1.64171       -6.36635
H          8.98415        2.15524       -8.63707
H          7.47179        1.36705       -8.14292
H          9.53905       -2.71036       -9.20654
H         10.71833       -3.25600      -13.19633
H         10.02774       -0.58854      -12.86116
