91

C          1.56136        0.96596       -2.80790
C          2.64782        0.59267       -1.79660
C          3.72126        1.68124       -1.65577
C          4.77399        1.33193       -0.61948
O          5.72270        2.41991       -0.54699
C          6.70036        2.29565        0.47104
C          7.43551        3.64567        0.50154
C          6.56603        4.70916        1.18699
C          7.03619        6.15031        0.98719
C          7.12936        6.41066       -0.51914
C          8.13759        5.45844       -1.15729
N          7.74338        4.01769       -0.95628
C          8.78649        3.09257       -1.56877
C          9.03679        3.32900       -3.05345
C          9.99698        2.27248       -3.62349
C         10.45196        2.60818       -5.04839
C         11.45785        1.60348       -5.61860
C         11.97517        1.98843       -7.00887
C         13.00655        1.00488       -7.57055
C         13.54953        1.40480       -8.94631
C         14.59236        0.42871       -9.49972
C         15.14315        0.82715      -10.87378
C         16.19711       -0.14541      -11.40894
C          7.29552        7.88327       -0.95655
C          8.40461        8.84073       -0.35502
C          9.94991        8.53558       -0.49746
C         10.66318        8.37910       -1.90125
C         10.64757        9.52653       -2.99125
C         11.25259       10.95927       -2.70083
C         12.77549       11.15166       -2.31498
C         13.88376       10.62410       -3.30183
F         13.63979       11.02319       -4.56060
F         15.06862       11.11535       -2.90831
F         13.94889        9.27860       -3.27316
F         12.94507       12.49197       -2.20393
F         12.99467       10.58480       -1.09976
F         11.02328       11.67174       -3.83141
F         10.53296       11.51443       -1.69125
F         11.30200        9.00889       -4.06401
F          9.35356        9.72972       -3.34570
F         11.95024        8.06731       -1.62294
F         10.10223        7.28936       -2.51712
F         10.59417        9.49624        0.19453
F         10.17561        7.33870        0.14673
F          8.17959       10.07267       -0.86373
F          8.18891        8.89010        0.99339
F          7.40162        7.92485       -2.32267
F          6.12274        8.51197       -0.62591
H          0.80582        0.17371       -2.88719
H          1.98372        1.12293       -3.81107
H          1.04312        1.89085       -2.51603
H          3.12299       -0.35592       -2.09588
H          2.18642        0.40607       -0.81273
H          3.24791        2.63541       -1.37157
H          4.21326        1.84723       -2.62880
H          5.30851        0.40060       -0.88174
H          4.31872        1.19410        0.37801
H          7.37924        1.44455        0.27998
H          6.23857        2.12820        1.46095
H          8.41118        3.55412        1.00144
H          6.55039        4.45920        2.25719
H          5.53129        4.60474        0.82386
H          8.01141        6.31579        1.46851
H          6.32266        6.83812        1.45732
H          6.14002        6.18774       -0.96198
H          9.13840        5.56512       -0.72352
H          8.20402        5.62133       -2.23546
H          6.84777        3.82181       -1.44386
H          8.42567        2.07078       -1.40433
H          9.70282        3.23499       -0.97799
H          9.48119        4.32127       -3.22040
H          8.08271        3.30337       -3.60771
H          9.51583        1.28027       -3.60277
H         10.88459        2.19858       -2.97136
H         10.90522        3.61498       -5.05056
H          9.57230        2.66993       -5.71233
H         10.99596        0.60180       -5.66074
H         12.31297        1.51415       -4.92567
H         12.42228        2.99713       -6.96199
H         11.12450        2.06780       -7.70829
H         12.55620       -0.00136       -7.63305
H         13.84716        0.91479       -6.86005
H         13.99309        2.41413       -8.88282
H         12.71123        1.48894       -9.66013
H         14.14977       -0.58113       -9.56419
H         15.42891        0.34417       -8.78357
H         15.57479        1.84059      -10.81109
H         14.30852        0.89974      -11.59158
H         17.06415       -0.20634      -10.73427
H         16.56679        0.16364      -12.39625
H         15.78781       -1.16159      -11.51129
