59

O          1.56037       -0.89317       -0.84264
C          2.94199       -0.66246       -1.07327
C          3.03939       -0.12468       -2.51246
C          4.45566        0.19135       -2.89109
N          4.99440       -0.69897       -3.74560
C          6.31403       -0.77955       -4.08450
C          7.19628        0.03583       -3.44473
C          6.73799        1.02825       -2.53206
C          5.30886        1.19330       -2.32954
C          4.83798        2.32448       -1.56974
C          5.79858        3.09567       -0.93310
C          7.17908        2.85057       -1.02974
C          7.68277        1.85412       -1.84747
C          9.17049        1.62797       -2.01688
C         10.08788        2.55129       -1.21205
C         11.57431        2.19225       -1.41616
C         12.46611        3.10335       -0.71323
C         13.17913        3.88211       -0.12330
C          3.42468        2.86315       -1.54943
C          3.05200        3.56267       -2.88167
O          3.02412        2.52738       -3.86958
C          3.30638        2.89722       -5.22447
C          3.62980        1.61886       -5.95888
C          4.89263        1.41204       -6.52693
C          5.19973        0.20337       -7.16073
C          4.24998       -0.82040       -7.21541
C          2.98347       -0.62283       -6.64837
C          2.67385        0.59258       -6.03401
C          1.71506        4.29494       -2.78861
H          1.45000       -1.32043        0.02122
H          3.53576       -1.59014       -0.97639
H          3.35713        0.07526       -0.36227
H          2.38786        0.74383       -2.63237
H          2.64556       -0.89334       -3.19441
H          4.34447       -1.33903       -4.20397
H          6.57615       -1.52225       -4.83270
H          8.25636       -0.06921       -3.65969
H          5.46669        3.95181       -0.34325
H          7.85919        3.49366       -0.47241
H          9.42724        1.72515       -3.08687
H          9.40043        0.58024       -1.75294
H          9.85901        2.48637       -0.13730
H          9.93570        3.60045       -1.50813
H         11.81826        2.20442       -2.49277
H         11.75981        1.16019       -1.07161
H         13.82600        4.56106        0.39127
H          3.36262        3.61427       -0.75071
H          2.65793        2.11394       -1.31634
H          3.85768        4.27840       -3.13734
H          4.16363        3.59293       -5.25964
H          2.43539        3.40576       -5.67734
H          5.64092        2.20610       -6.47913
H          6.17981        0.06483       -7.61942
H          4.48209       -1.75828       -7.72231
H          2.22816       -1.40758       -6.71441
H          1.68223        0.74852       -5.60553
H          0.90815        3.59574       -2.52831
H          1.46291        4.77148       -3.74500
H          1.75195        5.08449       -2.02535
