66

C          1.55323       -0.62000        0.23187
C          3.02619       -0.31382        0.10970
O          3.25799        1.01884        0.71850
C          4.40959        1.60804        0.44092
O          5.32188        1.16969       -0.24142
C          4.48080        3.01498        1.05111
C          3.57125        4.00295        0.31159
C          3.86748        5.45647        0.68984
C          5.34740        5.81017        0.45858
C          6.27130        4.87899        1.27158
N          5.92858        3.43288        0.90067
C          6.26323        5.02759        2.80702
C          7.42876        5.87372        3.34369
C          7.40833        5.98889        4.87021
C          8.59660        6.80065        5.41485
N          8.58615        6.91147        6.86137
C          7.88159        7.85356        7.58357
C          8.01834        7.55826        8.92678
C          8.82688        6.39096        9.02410
C          9.15797        6.01000        7.73729
C          5.67833        7.28734        0.71673
C          5.01227        8.25208       -0.27013
O          5.51185        9.54522       -0.01465
Si         4.72723       10.96596       -0.49311
C          4.48007       10.94495       -2.35594
C          3.06323       11.07350        0.37852
C          5.88225       12.32997        0.05103
H          1.36061       -1.61350       -0.19501
H          0.94524        0.10800       -0.32016
H          1.22882       -0.63340        1.28000
H          3.37233       -0.26795       -0.93072
H          3.65711       -1.02691        0.65741
H          4.25170        2.98988        2.12547
H          2.53269        3.73038        0.53981
H          3.70288        3.86317       -0.77491
H          3.58599        5.64599        1.73842
H          3.23188        6.11222        0.08121
H          5.57035        5.61204       -0.60898
H          7.30529        4.99638        0.91013
H          6.51112        2.79807        1.46354
H          6.18640        3.21516       -0.07743
H          6.32989        4.02907        3.27538
H          5.30495        5.44736        3.14740
H          7.40073        6.87928        2.89693
H          8.38039        5.41919        3.01673
H          7.42519        4.98717        5.32953
H          6.47250        6.46738        5.20053
H          8.59071        7.81572        4.98847
H          9.54667        6.33354        5.11338
H          7.36144        8.66329        7.08089
H          7.60055        8.13193        9.74769
H          9.14937        5.89706        9.93486
H          9.76728        5.18974        7.37091
H          6.76532        7.44592        0.63687
H          5.38795        7.58143        1.73769
H          3.91148        8.21711       -0.15937
H          5.24326        7.93937       -1.30867
H          3.83648       10.11137       -2.67257
H          5.43929       10.85710       -2.88481
H          3.99713       11.87422       -2.69069
H          2.38669       10.25532        0.09294
H          2.55856       12.01461        0.11668
H          3.18575       11.05304        1.47044
H          6.85555       12.24684       -0.45145
H          6.05339       12.29464        1.13573
H          5.45940       13.31495       -0.19215
