55

C          0.44139       -1.72943        1.74257
C         -0.51861       -1.02031        0.82282
C         -1.04030       -1.66854       -0.31106
C         -1.93500       -1.01954       -1.16024
C         -2.32555        0.29775       -0.89912
C         -1.82225        0.96004        0.22491
C         -0.92145        0.29636        1.07299
C         -2.20726        2.40152        0.51923
C         -1.01554        3.31028        0.38059
C         -0.28092        3.35124       -0.82381
C          0.81922        4.16261       -0.93257
N          1.22145        4.92715        0.13407
C          0.55792        4.91960        1.33343
C         -0.56649        4.10403        1.43943
C          1.02173        5.76909        2.48971
C          1.18578        4.94746        3.75711
C          0.34042        5.15757        4.85333
C          0.49526        4.40044        6.01807
C          1.49300        3.42554        6.09064
C          2.33944        3.21113        4.99766
C          2.18684        3.96647        3.83403
C          2.48477        5.71838       -0.02603
O          3.49853        5.36537        0.48745
C          2.27453        7.06560       -0.78207
C          3.56416        7.77222       -1.36446
C          4.55093        6.93357       -2.27138
C          3.84860        5.95765       -3.25814
O          3.15269        5.06678       -2.82192
O          4.07202        6.15101       -4.55163
F          5.31377        7.83924       -2.96282
F          5.37561        6.20559       -1.48446
F          3.09970        8.80380       -2.11707
F          4.27723        8.26516       -0.32856
F          1.35008        6.93368       -1.76337
F          1.75051        7.91001        0.16196
H         -0.03553       -2.60169        2.21310
H          0.79782       -1.06905        2.54298
H          1.31695       -2.10188        1.19159
H         -0.74131       -2.69658       -0.52437
H         -2.33618       -1.54144       -2.02960
H         -3.03312        0.80107       -1.56099
H         -0.52751        0.81138        1.95415
H         -2.63358        2.50101        1.52788
H         -2.98420        2.72613       -0.19134
H         -0.56177        2.72659       -1.67122
H          1.43654        4.23220       -1.82635
H         -1.08522        4.08941        2.39841
H          0.26186        6.55042        2.64916
H          1.95463        6.29582        2.25601
H         -0.43311        5.92708        4.80412
H         -0.16154        4.57837        6.87006
H          1.61652        2.83839        7.00087
H          3.12652        2.45875        5.05506
H          2.85964        3.80234        2.98918
H          4.67476        6.91226       -4.68419
