68

C          6.77212        5.52671        0.70403
C          6.82127        4.00086        0.60005
C          7.36248        3.32937        1.86736
C          7.43789        1.80208        1.75825
C          7.90388        1.15472        3.05049
O          8.00061       -0.26410        2.85174
C          8.37079       -0.95609        4.02100
C          8.39867       -2.44108        3.65052
C          9.04289       -3.34731        4.71235
C          8.35329       -3.20729        6.07511
O          6.99914       -3.56051        5.88634
C          6.20308       -3.39859        7.07967
C          4.76835       -3.79096        6.77782
C          3.85621       -3.62605        8.00058
C          2.39915       -4.01508        7.72721
C          1.48755       -3.84110        8.94750
C          0.03193       -4.22888        8.67679
N          8.89604       -4.80826        4.26105
C          9.87061       -5.01808        3.12520
C         11.00347       -4.00456        3.41124
C         10.59559       -3.27597        4.72571
C         11.13643       -4.05703        5.92127
O         10.83288       -5.23276        6.12364
O         11.94248       -3.32982        6.68297
C         12.49221       -3.96851        7.89736
C         11.57677       -3.72306        9.08063
H          6.37488        5.97860       -0.21456
H          7.77385        5.94830        0.87449
H          6.13117        5.85096        1.53724
H          7.44604        3.70823       -0.26051
H          5.81199        3.61049        0.38742
H          6.72384        3.60841        2.72389
H          8.36506        3.73267        2.09321
H          8.12702        1.51508        0.94769
H          6.45022        1.39220        1.49235
H          7.19196        1.36314        3.87309
H          8.89250        1.54992        3.35763
H          7.64343       -0.76746        4.83529
H          9.36399       -0.61250        4.38252
H          8.92838       -2.52212        2.69118
H          7.36415       -2.77435        3.48277
H          8.46403       -2.16432        6.42784
H          8.82586       -3.86051        6.83281
H          6.26489       -2.34361        7.40685
H          6.62669       -4.02726        7.88591
H          4.74666       -4.83751        6.43207
H          4.39685       -3.17277        5.94460
H          3.89292       -2.57866        8.34687
H          4.24441       -4.23583        8.83474
H          2.35779       -5.06448        7.38637
H          2.00932       -3.40961        6.89032
H          1.53318       -2.79212        9.28587
H          1.88142       -4.44467        9.78264
H         -0.40186       -3.61851        7.87097
H         -0.59182       -4.08946        9.56975
H         -0.05240       -5.28329        8.37487
H          7.91818       -5.04303        4.05363
H          9.24847       -5.37556        5.06428
H          9.35297       -4.82831        2.17963
H         10.19982       -6.06175        3.15072
H         11.09633       -3.28300        2.59245
H         11.97107       -4.50687        3.51814
H         10.95379       -2.24237        4.75695
H         13.46605       -3.48139        8.01883
H         12.63166       -5.03604        7.68930
H         11.40426       -2.64998        9.23343
H         12.04797       -4.12258        9.98889
H         10.61137       -4.23062        8.95551
