43

C          4.60153        1.16947        2.37426
C          5.38779        0.51621        1.72439
C          6.34616       -0.23558        0.92261
C          6.93477        0.60873       -0.23012
C          5.85490        1.03554       -1.23624
C          6.16041        2.31085       -2.06343
C          7.44792        2.14381       -2.90733
C          8.00993        3.40314       -3.57502
N          6.41984        3.43616       -1.12316
C          5.48195        4.21223       -0.58119
N          5.83253        5.15203        0.32701
N          4.20990        4.09401       -0.96958
C          3.76933        3.17413       -2.02159
C          4.92978        2.74057       -2.92884
C          4.43797        1.64266       -3.90325
C          3.98942        2.08778       -5.29896
C          2.96770        3.20095       -5.42356
Br         1.23962        2.66149       -4.62622
Br         5.55644        2.70946       -6.36756
H          3.90250        1.68945        2.99541
H          5.85772       -1.13936        0.52143
H          7.16125       -0.59145        1.57191
H          7.72530        0.02658       -0.72356
H          7.41845        1.49005        0.21854
H          4.92106        1.20342       -0.67766
H          5.65413        0.20649       -1.93069
H          7.24479        1.38235       -3.67357
H          8.22143        1.70313       -2.25917
H          7.29200        3.87729       -4.25510
H          8.89007        3.13670       -4.17354
H          8.34297        4.16243       -2.85148
H          7.38697        3.69418       -0.95842
H          6.68667        5.04659        0.86020
H          5.13934        5.78496        0.70555
H          3.49730        4.56977       -0.42667
H          2.98827        3.67834       -2.60464
H          3.29646        2.29602       -1.55391
H          5.25859        3.61462       -3.51389
H          3.58798        1.10265       -3.45444
H          5.22008        0.88810       -4.05341
H          3.64886        1.20631       -5.85425
H          2.74195        3.41613       -6.47085
H          3.26735        4.12690       -4.92084
