54

C          2.02649        0.53271       -0.40610
C          3.44619        0.53474       -0.92413
O          3.86149       -0.86866       -1.09069
C          5.08856       -1.06788       -1.57710
O          5.89192       -0.20430       -1.87517
C          5.36462       -2.57328       -1.73344
C          6.80974       -2.84423       -1.96343
C          7.77571       -3.21931       -1.05483
C          7.69662       -3.45042        0.41576
C          7.93564       -2.15846        1.23034
C          7.72480       -2.38975        2.72996
C          7.99618       -1.12492        3.54877
S          7.57618       -1.40813        5.28065
O          6.13389       -1.46893        5.41401
O          8.42848       -2.45485        5.78394
O          8.08042       -0.01132        5.93939
N          8.96459       -3.25058       -1.76364
C          8.75357       -2.91148       -3.04557
N          7.44909       -2.65744       -3.19063
C          6.78318       -2.21771       -4.43990
C          7.72757       -2.07337       -5.63561
C          6.93804       -1.62887       -6.85000
C          6.67796       -0.26858       -7.06789
C          5.91832        0.13957       -8.16579
C          5.41044       -0.80956       -9.05679
C          5.66693       -2.16682       -8.84788
C          6.42612       -2.57433       -7.74899
H          1.69386        1.56961       -0.26305
H          1.95218        0.01589        0.55930
H          1.34218        0.05219       -1.11712
H          4.15076        1.01096       -0.22826
H          3.54165        1.03084       -1.89982
H          4.73838       -2.95322       -2.55555
H          5.02074       -3.09820       -0.83260
H          8.42024       -4.22636        0.71181
H          6.70346       -3.85911        0.65505
H          7.25394       -1.37307        0.86636
H          8.95696       -1.78891        1.04086
H          8.38351       -3.19595        3.08711
H          6.69032       -2.72464        2.90691
H          7.38644       -0.27175        3.21938
H          9.05644       -0.83577        3.53256
H          7.28604        0.46437        6.25002
H          9.87076       -3.50335       -1.37962
H          9.50843       -2.86468       -3.81952
H          6.30281       -1.25538       -4.21682
H          5.99779       -2.95282       -4.66772
H          8.22253       -3.03319       -5.85141
H          8.50854       -1.33014       -5.40934
H          7.08140        0.47943       -6.38095
H          5.72975        1.20087       -8.32972
H          4.82200       -0.49121       -9.91761
H          5.28195       -2.91047       -9.54630
H          6.63290       -3.63657       -7.59782
