42

C         12.06471        2.07219        0.80490
C         10.85791        2.73325        0.13458
C          9.79570        1.71798       -0.30697
C          8.61080        2.37528       -0.99167
O          7.69095        1.34024       -1.39595
C          6.50973        1.81683       -2.00168
C          6.74392        2.40482       -3.38761
C          6.39763        3.73126       -3.61500
N          6.60289        4.26392       -4.82658
N          7.14451        3.64914       -5.86339
C          7.48642        2.36185       -5.71496
C          7.28290        1.66449       -4.46813
C          7.64138        0.26403       -4.23955
C          7.52189       -0.75599       -5.10901
C          8.10067        1.77629       -6.94582
C          7.06202        1.41006       -8.03219
C          7.75550        0.98588       -9.33534
N          8.61730        2.05738       -9.83449
H         12.80507        2.82086        1.11491
H         12.56613        1.36974        0.12361
H         11.76539        1.50962        1.70089
H         11.19611        3.31431       -0.74025
H         10.40415        3.46086        0.82783
H          9.43211        1.14654        0.56152
H         10.24253        0.98676       -1.00057
H          8.94763        2.95062       -1.87625
H          8.08996        3.07524       -0.31041
H          6.01087        2.57442       -1.36802
H          5.83067        0.95413       -2.08598
H          5.95845        4.38212       -2.85893
H          6.35986        5.23946       -5.01238
H          7.96856        0.04920       -3.21954
H          7.13182       -0.64587       -6.11998
H          7.77718       -1.76766       -4.79398
H          8.71045        0.90115       -6.68817
H          8.76588        2.52919       -7.39477
H          6.42596        2.28958       -8.22355
H          6.38883        0.60641       -7.69453
H          6.97466        0.66306      -10.04920
H          8.38778        0.10494       -9.14322
H          8.07659        2.77579      -10.31659
H          9.30314        1.70459      -10.49973
