101

C         10.80194       -1.96828      -14.22022
C         10.58615       -1.81071      -12.71291
C         10.88745       -3.08708      -11.91845
C         10.68257       -2.93110      -10.40822
C         10.97163       -4.20682       -9.60923
C         10.77178       -4.03301       -8.10019
C         11.06270       -5.29948       -7.28589
C         10.89101       -5.08150       -5.77701
C         11.19345       -6.32326       -4.95664
O         11.02605       -5.99187       -3.55827
C         11.36755       -7.02016       -2.64773
C         12.83563       -6.85015       -2.21141
N         13.00937       -5.45406       -1.74780
C         13.57744       -5.33284       -0.59942
C         13.94410       -6.63769        0.01072
C         13.32293       -7.66553       -0.99753
C         13.37107       -6.75100        1.45511
C         11.88233       -6.40402        1.54627
C         11.22462       -6.81919        2.86971
P          9.41281       -6.65993        2.70086
O          8.91844       -7.11875        1.38228
O          8.90715       -7.45234        4.00093
C          7.48631       -7.78890        4.13654
C          7.31254       -8.57473        5.41763
O          9.04387       -5.10856        2.92656
C          9.18853       -4.43948        4.21382
C          7.89614       -3.72214        4.55380
C         15.49736       -6.75741        0.04537
O         15.77651       -8.04748        0.51559
C         17.15498       -8.44244        0.37927
C         17.26583       -9.88150        0.85015
C         18.68164      -10.45693        0.73572
C         18.74663      -11.91672        1.19847
C         20.13865      -12.54588        1.09474
C         20.16715      -14.00910        1.54873
C         21.54868      -14.66289        1.45366
C         21.56168      -16.12861        1.90244
C         22.94376      -16.77976        1.81141
H         10.57017       -1.03966      -14.75963
H         10.16248       -2.76155      -14.63547
H         11.84528       -2.23284      -14.44909
H          9.54493       -1.50186      -12.51943
H         11.21872       -0.99009      -12.33370
H         11.92728       -3.40231      -12.11635
H         10.24867       -3.90682      -12.29180
H          9.64530       -2.60720      -10.21269
H         11.32719       -2.11513      -10.03616
H         12.00773       -4.53450       -9.80589
H         10.32266       -5.02203       -9.97395
H          9.73604       -3.70596       -7.90369
H         11.41976       -3.21429       -7.74031
H         12.09142       -5.64040       -7.49699
H         10.39688       -6.11258       -7.62171
H          9.86250       -4.75507       -5.55625
H         11.55652       -4.26647       -5.44490
H         12.22740       -6.67198       -5.14651
H         10.50697       -7.15036       -5.21086
H         11.23051       -8.02875       -3.07326
H         10.70470       -6.92431       -1.77241
H         13.48551       -6.96921       -3.09341
H         12.63630       -4.68891       -2.31951
H         13.74756       -4.34544       -0.16312
H         12.48040       -8.19590       -0.53484
H         14.06831       -8.41703       -1.27527
H         13.96434       -6.10807        2.12506
H         13.55571       -7.78588        1.77797
H         11.32125       -6.90263        0.74076
H         11.73087       -5.32160        1.38843
H         11.59364       -6.23506        3.72588
H         11.42673       -7.87941        3.08556
H          7.18743       -8.36862        3.25175
H          6.90353       -6.85528        4.15198
H          7.90960       -9.49572        5.39757
H          6.25665       -8.85335        5.53773
H          7.61210       -7.98234        6.29241
H         10.02280       -3.72839        4.11118
H          9.44897       -5.17517        4.98968
H          7.61388       -3.02527        3.75389
H          8.01900       -3.15046        5.48429
H          7.07337       -4.43522        4.69694
H         15.92263       -5.97348        0.70440
H         15.91220       -6.60412       -0.97331
H         17.79451       -7.76967        0.98090
H         17.46027       -8.34086       -0.68043
H         16.56644      -10.49556        0.25944
H         16.92327       -9.93552        1.89602
H         19.38221       -9.84866        1.33317
H         19.02959      -10.38709       -0.30948
H         18.03322      -12.51443        0.60428
H         18.39500      -11.98049        2.24306
H         20.85348      -11.95946        1.69809
H         20.49560      -12.47829        0.05204
H         19.44753      -14.58964        0.94464
H         19.80495      -14.07311        2.59002
H         22.26874      -14.08856        2.06295
H         21.91461      -14.59699        0.41369
H         20.84300      -16.70019        1.29076
H         21.19094      -16.19253        2.93963
H         23.32620      -16.76362        0.77994
H         22.91693      -17.82824        2.13832
H         23.67562      -16.25411        2.44261
