96

C          0.28696       -1.10525       -2.66671
C          1.81001       -1.20703       -2.56050
C          2.45921       -1.72101       -3.85245
C          3.99534       -1.73396       -3.84814
C          4.58993       -2.69783       -2.83346
O          6.02064       -2.71182       -2.99023
C          6.65885       -3.56732       -2.06767
C          8.15330       -3.61892       -2.38634
C          8.85677       -4.72309       -1.56121
C         10.29789       -4.26035       -1.38304
N         10.16292       -2.75324       -1.28095
C          8.96433       -2.30141       -2.13980
C          8.27429       -1.12151       -1.45941
C          9.16332        0.12769       -1.35320
C          8.45513        1.38997       -0.81686
C          7.97565        1.20591        0.63514
C          7.18879        2.39640        1.22203
C          6.50375        2.03339        2.50950
C          6.70236        2.54162        3.74009
C          7.68371        3.63381        4.07374
C          5.90749        2.03415        4.91524
C          9.38260        2.60236       -0.97326
C         11.24754       -4.54931       -2.54897
O         12.35910       -3.69190       -2.35951
C         13.45079       -3.89980       -3.29029
C         14.62863       -3.04772       -2.85369
C         15.86446       -3.24576       -3.74103
C         17.08517       -2.47392       -3.22776
C         18.34050       -2.66936       -4.08325
C         19.57484       -1.96101       -3.51556
C         20.83713       -2.15383       -4.36122
C         22.08186       -1.49044       -3.76399
C         23.34109       -1.66785       -4.61812
C         24.58649       -1.02865       -4.00038
H         -0.15799       -0.74164       -1.73066
H         -0.16280       -2.08367       -2.89116
H         -0.00926       -0.41315       -3.46855
H          2.06892       -1.86791       -1.71666
H          2.23098       -0.21687       -2.31456
H          2.12611       -1.08922       -4.69134
H          2.08278       -2.73497       -4.07355
H          4.37652       -0.71958       -3.64516
H          4.36394       -2.01843       -4.84578
H          4.19788       -3.72172       -2.99148
H          4.34055       -2.40074       -1.79754
H          6.25173       -4.59603       -2.14099
H          6.48657       -3.23178       -1.02294
H          8.23501       -3.85485       -3.45702
H          8.80614       -5.70352       -2.05114
H          8.37678       -4.82939       -0.57581
H         10.76436       -4.60855       -0.45197
H         11.06613       -2.35085       -1.59250
H         10.00328       -2.46531       -0.30782
H          9.40528       -1.96048       -3.08654
H          7.90909       -1.43348       -0.46594
H          7.37836       -0.89378       -2.05529
H          9.56668        0.35402       -2.35558
H         10.04166       -0.06583       -0.70682
H          7.56301        1.55872       -1.44854
H          8.84668        0.99992        1.28349
H          7.32748        0.31583        0.69959
H          6.42662        2.70640        0.48338
H          7.85402        3.25976        1.35804
H          5.74962        1.24216        2.41490
H          8.28054        3.96688        3.21686
H          8.37662        3.30028        4.86327
H          7.15670        4.51227        4.48000
H          5.19476        1.25260        4.62195
H          5.34371        2.85225        5.39210
H          6.57133        1.62323        5.69366
H         10.27728        2.49929       -0.33926
H          8.88026        3.53495       -0.68856
H          9.71854        2.71503       -2.01386
H         10.76147       -4.36899       -3.52827
H         11.53870       -5.61422       -2.50898
H         13.11218       -3.63932       -4.30961
H         13.71870       -4.97153       -3.28138
H         14.87843       -3.30630       -1.81198
H         14.33300       -1.98563       -2.85728
H         15.63651       -2.93445       -4.77448
H         16.11211       -4.32007       -3.79065
H         17.29977       -2.79072       -2.19219
H         16.84299       -1.39828       -3.17242
H         18.14687       -2.30816       -5.10821
H         18.55310       -3.74883       -4.17636
H         19.76345       -2.32974       -2.49186
H         19.36417       -0.88179       -3.41458
H         20.66142       -1.75526       -5.37584
H         21.02823       -3.23388       -4.48930
H         22.26537       -1.90257       -2.75580
H         21.88951       -0.41252       -3.61922
H         23.16242       -1.23791       -5.61821
H         23.52043       -2.74433       -4.77925
H         24.44705        0.05246       -3.85093
H         25.46886       -1.16467       -4.64049
H         24.81560       -1.47073       -3.01923
