80

C          2.40589        0.19564      -14.35419
C          3.77630       -0.39456      -14.01380
C          4.00485       -0.57903      -12.50902
C          5.37209       -1.17941      -12.16871
C          5.60848       -1.37711      -10.66755
C          6.97908       -1.98093      -10.34878
C          7.24413       -2.17138       -8.85090
C          8.67021       -2.65623       -8.57473
C          8.97897       -2.85590       -7.10166
O         10.36388       -3.22716       -6.99343
C         10.84457       -3.28034       -5.67062
C         12.35328       -3.61186       -5.72340
N         12.75244       -4.30585       -4.50257
C         12.85342       -3.43339       -3.34361
C         13.74868       -2.22059       -3.58131
N         13.34707       -1.47309       -4.84080
C         13.26605       -2.39062       -6.07539
C         12.82089       -1.59702       -7.30682
C         12.97831       -2.38066       -8.62761
C         12.80285       -1.46803       -9.79073
C         11.93566       -1.58979      -10.80213
F         11.08706       -2.60429      -10.92533
F         11.82801       -0.72893      -11.79985
F         13.63057       -0.38124       -9.80524
C         14.20922       -0.20785       -4.96310
O         13.50496        0.77137       -4.27844
C         13.49392        2.10764       -4.87548
C         12.84458        2.18428       -6.25154
C         11.39209        1.70156       -6.32361
C         10.82776        1.73966       -7.74737
C          9.39311        1.21465       -7.86266
C          8.85196        1.26652       -9.29301
H          2.27428        0.30834      -15.43910
H          2.27420        1.18888      -13.89964
H          1.59115       -0.44557      -13.98641
H          4.56959        0.25361      -14.42362
H          3.89358       -1.36840      -14.51890
H          3.20888       -1.22362      -12.09631
H          3.89564        0.39601      -12.00161
H          6.16693       -0.53097      -12.57848
H          5.48181       -2.14986      -12.68391
H          4.81532       -2.02293      -10.25225
H          5.50722       -0.40582      -10.15098
H          7.76694       -1.33704      -10.77695
H          7.07879       -2.95388      -10.86006
H          6.51443       -2.88682       -8.43528
H          7.06993       -1.21852       -8.32174
H          9.38651       -1.92263       -8.97782
H          8.85895       -3.60110       -9.10846
H          8.34670       -3.64435       -6.65282
H          8.80547       -1.92200       -6.53023
H         10.34961       -4.07519       -5.08335
H         10.63066       -2.31740       -5.15032
H         12.46605       -4.32339       -6.55436
H         13.60016       -4.85545       -4.63894
H         13.25302       -3.99924       -2.49130
H         11.84398       -3.10480       -3.04414
H         14.79370       -2.52541       -3.73414
H         13.70354       -1.49383       -2.75846
H         12.40155       -1.08236       -4.68784
H         14.29630       -2.75989       -6.21185
H         13.42027       -0.68490       -7.40856
H         11.77215       -1.28857       -7.20299
H         12.23653       -3.18573       -8.69403
H         13.98303       -2.83782       -8.67636
H         14.36003        0.01906       -6.02439
H         15.17623       -0.44537       -4.49037
H         14.52675        2.49056       -4.89902
H         12.93151        2.69444       -4.13802
H         13.45539        1.65733       -7.00547
H         12.89721        3.24402       -6.55212
H         10.76677        2.31580       -5.65409
H         11.31250        0.67138       -5.93117
H         11.48452        1.15780       -8.41847
H         10.86747        2.77604       -8.12341
H          8.73571        1.79835       -7.19714
H          9.35444        0.17754       -7.48689
H          8.86031        2.29451       -9.68270
H          7.81806        0.90233       -9.34756
H          9.45882        0.65247       -9.97526
