39

F          3.88867        0.98035        3.01802
C          3.94390        0.47486        1.78733
C          3.24425        0.98042        0.76445
C          2.33574        2.15634        0.82292
C          2.78336        3.27969       -0.13770
N          1.96125        4.48260        0.03520
C          0.67970        4.71724       -0.47310
N          0.07259        3.86107       -1.34527
N          0.12611        5.77720        0.06354
N          1.07228        6.21258        0.97819
C          2.18773        5.46553        0.96562
N          3.30766        5.59849        1.67050
C          3.58030        6.59574        2.70615
C          3.50414        6.03000        4.13426
C          4.35900        4.78137        4.42192
C          5.87796        4.95061        4.18035
S          6.46312        3.92788        2.81780
O          6.51339        2.54000        3.20884
O          5.74057        4.30953        1.60886
O          7.95938        4.48540        2.61013
F          3.35014        0.38427       -0.45313
F          4.73697       -0.57386        1.71280
H          2.32005        2.53525        1.85390
H          1.30603        1.85426        0.56861
H          2.71032        2.95925       -1.18454
H          3.83647        3.54481        0.02558
H          0.64033        3.47235       -2.09277
H         -0.83711        4.18470       -1.66424
H          0.89698        7.06765        1.49140
H          4.09724        4.96730        1.47357
H          2.89140        7.44530        2.60188
H          4.58223        6.99677        2.49382
H          2.45759        5.78445        4.37098
H          3.79223        6.84259        4.81998
H          3.97858        3.92033        3.85043
H          4.21162        4.50589        5.47400
H          6.47599        4.63526        5.04501
H          6.16833        5.97990        3.92699
H          8.58836        3.80216        2.91738
