80

C         11.08201        2.57164        5.20209
C         10.47149        1.59661        4.19240
C         10.87998        1.89040        2.74536
C         10.28540        0.91717        1.72265
C         10.72343        1.20584        0.28386
C         10.16880        0.21645       -0.74601
C         10.65618        0.49662       -2.17061
C         10.17818       -0.52201       -3.21041
C         10.73323       -0.23989       -4.61036
C         10.38232       -1.31400       -5.64605
C         10.86497       -1.01526       -7.07922
C         12.36920       -0.73871       -7.19589
C         12.89062       -0.18569       -8.55194
C         14.39724       -0.22127       -8.28469
N         14.60780       -1.55809       -7.62346
C         13.33394       -1.91762       -6.84465
C         12.90141       -3.34844       -7.18438
C         13.93633       -4.44276       -6.86530
C         14.32442       -4.55620       -5.38775
C         12.36176       -0.94877       -9.80028
C         13.26264       -0.97189      -11.05479
P         14.31208       -2.44702      -11.13729
O         15.05185       -2.80521       -9.87235
O         13.29304       -3.59595      -11.57415
C         13.47366       -5.00260      -11.19743
C         12.16149       -5.54666      -10.67510
O         15.26373       -2.11197      -12.36281
C         16.25685       -3.08038      -12.85146
C         17.27742       -2.32914      -13.67629
H         10.77437        2.33371        6.22935
H         10.77318        3.60687        4.99486
H         12.18153        2.54345        5.17018
H          9.37163        1.62204        4.27210
H         10.76785        0.56569        4.44972
H         11.98181        1.86950        2.66885
H         10.58130        2.92119        2.48521
H          9.18346        0.94641        1.78426
H         10.57453       -0.11445        1.99054
H         11.82695        1.19728        0.23408
H         10.41897        2.23048        0.00734
H          9.06553        0.23615       -0.72234
H         10.45879       -0.80943       -0.45765
H         11.76115        0.51821       -2.17300
H         10.33652        1.50864       -2.47520
H          9.07558       -0.53518       -3.24430
H         10.48360       -1.53544       -2.89472
H         11.82999       -0.13997       -4.52337
H         10.36926        0.74278       -4.95920
H          9.28928       -1.44391       -5.67916
H         10.78035       -2.28437       -5.30288
H         10.33889       -0.11893       -7.44717
H         10.56162       -1.83708       -7.74598
H         12.59687        0.05365       -6.46462
H         12.59602        0.86890       -8.65283
H         14.67631        0.57242       -7.58074
H         15.05366       -0.16272       -9.16008
H         15.43758       -1.56781       -7.02441
H         14.78396       -2.23735       -8.44191
H         13.59513       -1.86697       -5.77899
H         12.63152       -3.41648       -8.24780
H         11.97959       -3.55210       -6.62030
H         14.83769       -4.30649       -7.48564
H         13.50673       -5.39940       -7.19940
H         14.85098       -3.66452       -5.01502
H         14.99610       -5.40905       -5.22753
H         13.44119       -4.70660       -4.75053
H         11.40527       -0.48524      -10.07449
H         12.10102       -1.98312       -9.53644
H         13.90733       -0.08510      -11.14001
H         12.65016       -0.99263      -11.96741
H         14.27197       -5.06676      -10.44504
H         13.79638       -5.52765      -12.10767
H         11.85885       -5.03902       -9.74901
H         12.26965       -6.61789      -10.45577
H         11.36055       -5.42951      -11.41612
H         15.71801       -3.82884      -13.45153
H         16.71916       -3.57662      -11.98529
H         16.79981       -1.81340      -14.51917
H         18.01303       -3.03775      -14.08074
H         17.81260       -1.59032      -13.06649
