123

C         22.10506        4.17992       -6.26638
C         21.00144        3.71733       -5.31291
C         21.48530        2.69252       -4.28254
C         20.38936        2.21888       -3.32342
C         20.87726        1.19311       -2.29642
C         19.78533        0.71204       -1.33595
C         20.28585       -0.30958       -0.31069
C         19.20511       -0.79835        0.65859
C         19.72266       -1.82155        1.67403
C         18.66100       -2.30958        2.66500
C         19.20141       -3.33765        3.66388
C         18.16654       -3.82099        4.68523
C         18.74117       -4.83878        5.67614
C         17.73903       -5.31223        6.73421
C         18.35563       -6.31804        7.71213
C         17.37530       -6.76104        8.81486
C         17.95270       -7.75324        9.76437
N         19.22914       -7.68293       10.28893
C         19.42709       -8.73966       11.10989
N         18.27857       -9.42462       11.05485
N         17.35348       -8.82662       10.23668
C         17.89119      -10.58407       11.84298
C         17.62161      -10.18587       13.30986
O         17.89446       -9.09304       13.76066
O         17.10087      -11.23152       13.94737
C         16.79245      -11.08207       15.38465
C         15.29431      -10.95037       15.59511
C         14.94270      -10.94933       17.08907
C         13.43786      -10.83461       17.35342
C         13.08419      -10.88062       18.84331
C         11.58356      -10.75630       19.11251
C         20.68393       -9.08019       11.82836
C         21.59365      -10.06160       11.04379
C         22.05400       -9.54426        9.67846
C         23.02394      -10.49531        8.96822
C         23.40153      -10.02548        7.55959
C         24.34547      -10.98419        6.82779
C         24.64924      -10.55809        5.38806
C         25.56002      -11.53715        4.64131
C         25.78699      -11.16554        3.17303
C         26.70078      -12.14477        2.43031
C         26.87493      -11.81847        0.94413
C         27.80836      -12.78681        0.21174
C         27.96805      -12.47917       -1.28034
C         28.91416      -13.44558       -1.99627
H         21.73095        4.91625       -6.99118
H         22.52058        3.33435       -6.83463
H         22.93549        4.64732       -5.71623
H         20.17011        3.28244       -5.89310
H         20.57880        4.58911       -4.78540
H         22.31671        3.12828       -3.70041
H         21.91102        1.82048       -4.81001
H         19.55801        1.78469       -3.90628
H         19.96534        3.09097       -2.79517
H         21.70754        1.62929       -1.71335
H         21.30465        0.32331       -2.82588
H         18.95640        0.27091       -1.91695
H         19.35553        1.58068       -0.80682
H         21.11685        0.13333        0.26631
H         20.71633       -1.17646       -0.84237
H         18.37225       -1.24133        0.08488
H         18.77737        0.06646        1.19543
H         20.56523       -1.38032        2.23537
H         20.14140       -2.68876        1.13367
H         17.81366       -2.74791        2.10947
H         18.24952       -1.44543        3.21527
H         20.06202       -2.90137        4.20109
H         19.59938       -4.20641        3.11063
H         17.30688       -4.26780        4.15668
H         17.76720       -2.95460        5.24047
H         19.61645       -4.39362        6.18175
H         19.12342       -5.71223        5.11952
H         16.86518       -5.77128        6.24209
H         17.35554       -4.44316        7.29562
H         19.24901       -5.85368        8.16817
H         18.71059       -7.20303        7.15919
H         16.47154       -7.21364        8.38416
H         17.03977       -5.88076        9.39007
H         19.92819       -6.97566       10.07602
H         18.68386      -11.34348       11.80921
H         16.99129      -11.00632       11.38273
H         17.34524      -10.21449       15.76585
H         17.18496      -12.00259       15.83593
H         14.78491      -11.78799       15.09304
H         14.93680      -10.02099       15.12357
H         15.46324      -10.11548       17.59015
H         15.32413      -11.87362       17.55570
H         12.90994      -11.64981       16.82833
H         13.05965       -9.89470       16.91514
H         13.62258      -10.07366       19.36835
H         13.45896      -11.82495       19.27270
H         11.18664       -9.80437       18.72984
H         11.36605      -10.79811       20.18814
H         11.02250      -11.56871       18.62769
H         20.42122       -9.49117       12.81232
H         21.22688       -8.14242       12.01930
H         21.07557      -11.02647       10.92050
H         22.46555      -10.26245       11.68431
H         22.53802       -8.55844        9.80188
H         21.17987       -9.38348        9.02243
H         22.56752      -11.49826        8.90566
H         23.93476      -10.61139        9.57930
H         23.86541       -9.02526        7.61677
H         22.48053       -9.90103        6.96241
H         23.89996      -11.99422        6.81864
H         25.28872      -11.07344        7.39358
H         25.11080       -9.55526        5.38967
H         23.69895      -10.45406        4.83490
H         25.12305      -12.54984        4.69348
H         26.53267      -11.60040        5.15946
H         26.21391      -10.14912        3.11225
H         24.81128      -11.11563        2.65799
H         26.29612      -13.16724        2.53141
H         27.69039      -12.16183        2.91933
H         27.26141      -10.78954        0.83794
H         25.88597      -11.82257        0.45268
H         27.43161      -13.81812        0.33137
H         28.80154      -12.77068        0.69435
H         28.33549      -11.44595       -1.39962
H         26.97677      -12.50592       -1.76353
H         29.91920      -13.42164       -1.54945
H         29.01734      -13.19587       -3.06104
H         28.54888      -14.48133       -1.93080
