40

F          2.46066       -1.56419       -0.40878
C          2.12472       -0.28823        0.07568
C          2.81049       -0.04104        1.42197
C          4.31922        0.03321        1.34349
C          4.96720        1.26268        1.13574
C          4.17276        2.54564        0.99637
C          4.95584        3.82816        0.71490
C          6.38117        1.30924        1.06808
C          7.19908        0.20577        1.20868
C          6.55913       -1.05696        1.40201
C          5.11316       -1.14046        1.46139
C          4.54184       -2.43504        1.63975
C          5.32276       -3.54850        1.76629
N          6.68700       -3.41683        1.71581
C          7.29775       -2.23946        1.54045
C          8.69768        0.38899        1.16692
C          9.32805        0.96369        2.45376
C          9.20421        0.03028        3.67640
F          9.64959       -1.23130        3.42025
F          9.93079        0.51114        4.71138
F          7.91402       -0.07538        4.09514
O         10.68606        1.19093        2.14457
H          1.03131       -0.25520        0.18753
H          2.43696        0.43913       -0.68854
H          2.48725       -0.81620        2.13020
H          2.41068        0.90146        1.82085
H          3.58429        2.67796        1.92145
H          3.42031        2.40608        0.20335
H          5.65850        4.07431        1.52302
H          4.25876        4.67026        0.62697
H          5.51742        3.77236       -0.22815
H          6.85365        2.27707        0.89824
H          3.46408       -2.56769        1.65546
H          4.93700       -4.55590        1.90105
H          7.26140       -4.25284        1.81481
H          8.38422       -2.26464        1.52600
H          8.94347        1.11430        0.37895
H          9.23933       -0.52824        0.90267
H          8.80419        1.89516        2.74234
H         11.12620        1.60309        2.90672
