58

C          6.43598        5.82782        2.23649
C          5.81285        4.48023        2.60716
C          6.29176        3.33840        1.70293
C          5.75389        1.95212        2.07970
N          4.28428        1.83148        1.97997
C          3.54521        1.88643        3.09841
O          4.02419        2.05806        4.24374
C          2.02794        1.73012        3.04054
P          1.59483        1.76185        4.80736
C          2.07622        3.49091        5.45540
O          1.71860        4.40704        4.75220
C          2.80878        3.57712        6.75511
C         -0.22007        1.67114        5.04320
C         -1.00106        0.43128        4.56233
C         -0.69588       -0.88313        5.31300
P          0.57868       -1.88698        4.49769
O          1.72531       -1.07994        3.97477
O          0.88620       -2.94989        5.64004
C          1.70457       -4.14916        5.43013
C          3.18844       -3.85221        5.54053
O         -0.19181       -2.69826        3.34785
C          0.21910       -2.65882        1.94598
C          1.19607       -3.77134        1.61756
C          3.72822        1.64807        0.64366
H          6.07072        6.62894        2.89252
H          6.19515        6.11191        1.20152
H          7.53170        5.79974        2.32492
H          4.71398        4.56020        2.55576
H          6.04774        4.23302        3.65493
H          7.39102        3.26935        1.74397
H          6.05166        3.56667        0.65047
H          6.02312        1.70355        3.11344
H          6.18152        1.18263        1.41929
H          1.69656        0.77184        2.62046
H          1.51951        2.56999        2.54264
H          2.20378        0.70498        5.50533
H          2.18363        3.16351        7.56312
H          3.05125        4.62231        6.97765
H          3.72420        2.97141        6.70270
H         -0.60959        2.57732        4.55179
H         -0.37659        1.81831        6.12525
H         -0.87141        0.29954        3.47730
H         -2.06395        0.67256        4.70413
H         -1.59841       -1.50532        5.38405
H         -0.36746       -0.69452        6.34620
H          1.43872       -4.58823        4.45790
H          1.36960       -4.83690        6.21617
H          3.52799       -3.17609        4.74546
H          3.75156       -4.79260        5.45892
H          3.42596       -3.39854        6.51157
H          0.65613       -1.67220        1.73272
H         -0.71789       -2.76361        1.38438
H          2.14547       -3.63749        2.15379
H          1.41343       -3.76379        0.53986
H          0.77547       -4.75380        1.86948
H          4.04225        2.47048       -0.01376
H          2.63534        1.63246        0.66966
H          4.08480        0.70110        0.21193
