47

O          9.75847       -6.64366        1.47512
C          8.72219       -6.51051        0.49619
C          9.04912       -5.27204       -0.32132
N          9.14908       -4.10234        0.57579
C          9.66238       -2.87440       -0.05498
C          8.72915       -2.28349       -1.12624
C          7.23925       -2.19825       -0.73930
N          6.93954       -1.28915        0.37049
C          6.81020       -1.66948        1.65248
N          6.26600       -0.89527        2.61442
C          6.32724       -1.58145        3.92362
C          6.74980       -3.05531        3.51445
N          7.21287       -2.84323        2.13101
N          5.79753       -4.13659        3.52144
C          5.01895       -1.42877        4.69606
C          5.01325       -1.93196        6.15548
C          6.02554       -1.23322        7.08117
N          7.39462       -1.71730        6.83118
O          3.68703       -1.84854        6.67377
O          9.21287       -1.01326       -1.55381
H          9.61798       -7.45868        1.97956
H          7.73578       -6.39342        0.98190
H          8.68155       -7.38564       -0.17363
H          8.24874       -5.11475       -1.05947
H          9.99207       -5.43044       -0.87727
H          9.79914       -4.37700        1.31909
H         10.65293       -3.01934       -0.52276
H          9.79301       -2.12758        0.74864
H          8.76385       -2.91796       -2.02752
H          6.83760       -3.19210       -0.49554
H          6.69162       -1.82558       -1.61432
H          6.73213       -0.32293        0.14535
H          5.58305       -0.17474        2.40563
H          7.15394       -1.16013        4.51156
H          7.59073       -3.35237        4.15499
H          7.83512       -3.50526        1.57394
H          4.88913       -3.88944        3.12985
H          5.66494       -4.54133        4.44585
H          4.19923       -1.93846        4.16478
H          4.75849       -0.35502        4.71724
H          5.23705       -3.01220        6.17067
H          5.67965       -1.39014        8.11778
H          6.00479       -0.14605        6.89572
H          7.54176       -2.60700        7.31079
H          8.07541       -1.07131        7.23121
H          3.45210       -0.91452        6.80366
H          9.53595       -0.52068       -0.78124
