82

C          0.83989       -0.12365       -1.05227
C          2.36616       -0.00718       -1.03671
C          2.88072        1.10726       -0.11864
C          4.40745        1.23168       -0.09868
C          4.92188        2.34509        0.81965
C          6.44871        2.47201        0.82681
C          6.96880        3.58874        1.73808
C          8.49552        3.72191        1.71630
C          9.02286        4.84842        2.61194
C         10.54518        4.99722        2.53490
C         11.07474        6.14865        3.42756
C         12.54749        6.36350        3.26332
C         13.48443        5.78732        4.13087
C         14.84846        5.98159        3.96094
C         15.33325        6.75679        2.88967
C         14.37657        7.27855        2.03665
N         13.03947        7.09573        2.22117
C         12.16525        7.81938        1.25885
C         12.18525        9.32426        1.56593
C         11.71227       10.13734        0.36597
C         11.84454       11.69664        0.50361
C         13.25934       12.32532        0.83483
C         14.48703       11.96308       -0.07933
F         14.18898       12.10262       -1.37668
F         15.51257       12.76231        0.23151
F         14.87022       10.67680        0.14671
F         13.09883       13.66525        0.79322
F         13.59647       11.96764        2.11299
F         11.39483       12.25376       -0.64259
F         11.02630       12.07727        1.52769
F         12.39425        9.75942       -0.76562
F         10.38630        9.87949        0.13306
C         16.80078        7.04537        2.68011
C         17.08641        8.28282        1.81905
C         18.57487        8.66804        1.74434
C         18.76158        9.92347        0.92083
C         18.76685       11.18546        1.53301
C         18.87412       12.35081        0.77026
C         18.97410       12.26941       -0.62104
C         18.97357       11.01742       -1.24270
C         18.86864        9.85430       -0.47632
H          0.50363       -0.92640       -1.72257
H          0.37119        0.81149       -1.39338
H          0.44542       -0.34261       -0.04879
H          2.73341        0.16972       -2.06192
H          2.80639       -0.96837       -0.72125
H          2.51465        0.93110        0.90832
H          2.44008        2.06991       -0.43337
H          4.77215        1.40944       -1.12582
H          4.84807        0.26861        0.21425
H          4.56457        2.16508        1.84871
H          4.47762        3.30761        0.51047
H          6.80359        2.64904       -0.20384
H          6.89393        1.51061        1.13774
H          6.63092        3.40667        2.77309
H          6.51491        4.54875        1.43568
H          8.82945        3.89652        0.67827
H          8.95199        2.76548        2.02467
H          8.72196        4.66556        3.65746
H          8.54853        5.80211        2.32074
H         10.84489        5.16672        1.48673
H         11.03777        4.06007        2.83973
H         10.88642        5.90660        4.48258
H         10.51472        7.07386        3.22516
H         13.10961        5.19362        4.96382
H         15.55079        5.54090        4.67117
H         14.64312        7.88510        1.17371
H         11.15766        7.40171        1.29858
H         12.56871        7.62254        0.25821
H         13.20717        9.63557        1.81447
H         11.54996        9.56959        2.42777
H         17.27678        6.15322        2.23679
H         17.26538        7.16113        3.67286
H         16.52452        9.14527        2.21650
H         16.72716        8.12677        0.78842
H         19.15094        7.83685        1.30752
H         18.96576        8.82597        2.76192
H         18.69785       11.25603        2.62140
H         18.88607       13.32312        1.26420
H         19.06390       13.17710       -1.21843
H         19.06690       10.94676       -2.32710
H         18.88255        8.87940       -0.97003
