94

C          0.58775        0.41753        0.33933
C          2.11817        0.38830        0.31244
C          2.68849       -0.80813       -0.45713
C          4.21896       -0.87287       -0.45742
C          4.77944       -2.06941       -1.23267
C          6.30775       -2.16941       -1.20030
C          6.85548       -3.35903       -1.99509
C          8.37966       -3.50063       -1.93083
C          8.90982       -4.68400       -2.74658
C         10.42795       -4.87154       -2.65800
C         10.93334       -6.04898       -3.49776
C         12.44433       -6.28128       -3.39635
C         12.92175       -7.44240       -4.27660
C         14.43135       -7.68926       -4.15444
C         14.96564       -8.85278       -5.02792
C         14.64376       -8.61009       -6.51169
O         15.60976       -9.26260       -7.30339
C         15.17757       -9.48019       -8.65877
C         16.26240      -10.24035       -9.39842
C         15.90810      -10.50667      -10.86549
C         16.94450      -11.38626      -11.57314
C         16.64893      -11.61598      -13.05805
C         17.67121      -12.52484      -13.74985
C         17.39108      -12.72921      -15.24043
N         16.45072       -8.90766       -4.85323
C         16.85878       -9.81882       -4.04002
C         15.73037      -10.58730       -3.46870
C         14.56326      -10.26796       -4.44757
C         14.28116      -11.35107       -5.47048
C         12.94127      -11.61376       -5.78621
C         12.57402      -12.57646       -6.72684
C         13.57009      -13.31565       -7.36256
C         14.91563      -13.09212       -7.06273
C         15.27807      -12.10889       -6.13404
O         16.58551      -11.82030       -5.82950
C         17.61902      -12.62594       -6.40995
H          0.20961        1.28804        0.89277
H          0.18030       -0.48437        0.82034
H          0.17079        0.46421       -0.67792
H          2.50463        0.37195        1.34573
H          2.49801        1.32217       -0.13579
H          2.32293       -0.77825       -1.49903
H          2.28616       -1.74198       -0.02550
H          4.58181       -0.91080        0.58500
H          4.62568        0.06141       -0.88336
H          4.43897       -2.01547       -2.28189
H          4.34756       -3.00065       -0.82496
H          6.64607       -2.24310       -0.15168
H          6.74560       -1.23474       -1.59294
H          6.54162       -3.26737       -3.04992
H          6.39018       -4.28922       -1.62352
H          8.69191       -3.61207       -0.87757
H          8.85135       -2.56855       -2.28855
H          8.61998       -4.55516       -3.80432
H          8.41116       -5.60985       -2.40922
H         10.71781       -5.02058       -1.60315
H         10.93364       -3.94563       -2.98332
H         10.66164       -5.88329       -4.55505
H         10.40410       -6.96825       -3.19081
H         12.71838       -6.47722       -2.34515
H         12.98025       -5.36053       -3.68457
H         12.65580       -7.22693       -5.32379
H         12.36712       -8.35568       -4.00245
H         14.68815       -7.88109       -3.09942
H         14.97181       -6.77119       -4.44020
H         14.63239       -7.52126       -6.72011
H         13.62829       -8.99638       -6.71254
H         14.97163       -8.50755       -9.14447
H         14.23512      -10.05934       -8.63934
H         16.42884      -11.19806       -8.88137
H         17.20630       -9.67466       -9.33585
H         15.81069       -9.54781      -11.40236
H         14.91817      -10.99128      -10.92470
H         17.00319      -12.36144      -11.05694
H         17.94409      -10.92863      -11.46822
H         16.61587      -10.64218      -13.57748
H         15.63984      -12.05084      -13.16910
H         17.68999      -13.50298      -13.23959
H         18.68025      -12.09788      -13.62008
H         16.40336      -13.18567      -15.40333
H         18.13980      -13.38605      -15.70340
H         17.40646      -11.77335      -15.78468
H         17.07523       -8.29731       -5.38247
H         17.92002       -9.94048       -3.81750
H         15.52550      -10.20571       -2.45217
H         15.96402      -11.65242       -3.36456
H         13.63922      -10.12994       -3.87402
H         12.16541      -11.04329       -5.27016
H         11.52251      -12.75367       -6.94879
H         13.30795      -14.07930       -8.09511
H         15.67887      -13.68139       -7.56702
H         17.50329      -13.68574       -6.13829
H         18.55915      -12.24534       -5.99588
H         17.63993      -12.51877       -7.50465
