66

C          0.91402       -0.40618        1.12108
C          2.41326       -0.34358        0.82316
C          3.00962       -1.70561        0.44121
C          4.51885       -1.61985        0.16747
C          5.20784       -2.91503       -0.29872
C          4.93452       -3.13803       -1.79704
O          5.43543       -4.35450       -2.30896
C          4.79249       -5.46597       -1.67898
C          5.14849       -5.45282       -0.19724
N          4.73139       -4.15311        0.46986
C          5.06404       -4.25435        2.00168
C          5.79485       -3.11225        2.64031
C          5.05790       -2.19391        3.40703
C          5.67958       -1.12250        4.04279
C          7.06181       -0.96673        3.91692
C          7.80642       -1.89468        3.18787
C          7.20161       -2.98657        2.54837
C          8.06542       -3.98973        1.82414
C          5.12442       -6.79137       -2.42122
C          6.53651       -7.39613       -2.17527
C          7.81121       -6.70347       -2.71901
C          8.38099       -5.63011       -1.78026
C          8.88134       -7.77073       -2.99869
C          4.07297       -7.85095       -1.98100
O          4.13319       -8.23430       -0.60020
C          4.87745       -6.56076       -3.92491
H          0.52201        0.58447        1.38435
H          0.69745       -1.08090        1.96251
H          0.34543       -0.76542        0.25087
H          2.95537        0.04914        1.69923
H          2.60172        0.36988        0.00444
H          2.46832       -2.09780       -0.43714
H          2.80200       -2.40564        1.27268
H          5.02936       -1.22196        1.05090
H          4.69064       -0.88309       -0.63452
H          6.29041       -2.86216       -0.13004
H          5.43391       -2.32977       -2.34754
H          3.84669       -3.06298       -1.99825
H          3.69264       -5.32097       -1.77915
H          6.23116       -5.53852       -0.05627
H          4.64725       -6.27165        0.33336
H          3.70403       -4.10783        0.42138
H          5.63189       -5.18718        2.08939
H          4.09110       -4.40325        2.48496
H          3.97790       -2.32530        3.50399
H          5.09420       -0.41958        4.63537
H          7.56623       -0.13280        4.40601
H          8.89015       -1.78228        3.12538
H          9.12600       -3.79955        2.02490
H          7.94052       -3.95752        0.73143
H          7.85408       -5.02211        2.14276
H          6.49033       -8.39403       -2.64353
H          6.67731       -7.59500       -1.09843
H          7.56758       -6.21765       -3.67749
H          8.59654       -6.05396       -0.78517
H          7.69716       -4.77992       -1.66863
H          9.32831       -5.23588       -2.17328
H          9.14802       -8.31646       -2.07960
H          9.80173       -7.31657       -3.39003
H          8.53109       -8.50766       -3.73471
H          4.18144       -8.73287       -2.63141
H          3.06085       -7.44699       -2.14409
H          4.66688       -9.03828       -0.52099
H          5.51602       -5.76804       -4.32699
H          3.83265       -6.27320       -4.11624
H          5.07979       -7.48329       -4.48586
