27

N          5.22998        1.69358       -3.45369
C          4.62731        0.36123       -3.55097
C          3.08470        0.52068       -3.63654
C          2.45783        0.70185       -2.19468
C          0.97961        0.75022       -2.25610
N          0.22707        1.83084       -2.46540
C         -1.22837        1.57204       -2.43058
C         -1.43824        0.08603       -2.70061
S          0.09207       -0.71384       -2.11348
Br        -1.73560       -0.30203       -4.59893
C          0.71892        3.15060       -2.59119
C         -0.05924        4.23740       -2.63316
O          2.77250        1.61973       -4.44908
H          6.05934        1.78323       -4.03601
H          5.49782        1.94111       -2.50278
H          4.90875       -0.31876       -2.73140
H          4.95084       -0.10454       -4.49100
H          2.64139       -0.38564       -4.07807
H          2.86772        1.60804       -1.72712
H          2.75084       -0.16283       -1.58114
H         -1.73277        2.18431       -3.18638
H         -1.60588        1.84263       -1.43043
H         -2.29446       -0.32868       -2.16259
H          1.80020        3.20919       -2.66655
H         -1.14644        4.21726       -2.58787
H          0.41048        5.21429       -2.72127
H          3.57264        2.19991       -4.35658
