71

C          2.75627       -0.25796       -9.06683
C          4.14927       -0.06719       -8.46368
C          4.11953        0.50555       -7.04158
C          5.52094        0.70221       -6.45152
C          5.49445        1.34276       -5.07608
O          6.85613        1.61766       -4.67880
C          6.99193        2.28122       -3.43248
C          8.47068        2.65411       -3.33112
N          8.89729        3.24246       -4.65353
C          8.54221        4.70005       -4.82018
C          8.69083        5.12318       -6.28663
C          7.62424        4.49936       -7.21484
C          6.16975        4.80573       -6.84085
C          5.16205        4.33136       -7.89538
C          3.70827        4.58458       -7.49250
C         10.13327        4.83574       -6.75457
C         10.54788        3.37863       -6.49620
C         10.34058        2.93972       -5.04075
C         11.35600        3.52552       -4.05567
C         12.58614        2.59123       -4.02803
O         12.43615        1.37215       -4.09616
N         13.78117        3.21608       -3.90559
C         15.06208        2.50986       -3.83971
C         16.03587        2.95120       -4.93711
C         16.47064        4.42030       -4.85137
C         17.48626        4.80975       -5.92852
H          2.81564       -0.65946      -10.08699
H          2.20655        0.69365       -9.11615
H          2.15363       -0.95788       -8.46997
H          4.74250        0.60366       -9.10883
H          4.68561       -1.03054       -8.45593
H          3.53212       -0.16288       -6.38945
H          3.58309        1.47003       -7.05016
H          6.11578        1.34401       -7.12302
H          6.04785       -0.26306       -6.39158
H          5.02720        0.67808       -4.32846
H          4.92768        2.29264       -5.08992
H          6.72416        1.62922       -2.58274
H          6.33671        3.17251       -3.38969
H          9.08160        1.75573       -3.17383
H          8.66078        3.36977       -2.52298
H          8.29589        2.70759       -5.31772
H          9.21078        5.27022       -4.16142
H          7.51522        4.83034       -4.45936
H          8.53435        6.21444       -6.29606
H          7.75284        3.40429       -7.28994
H          7.82170        4.87508       -8.23147
H          6.05005        5.89210       -6.68493
H          5.91306        4.33299       -5.87646
H          5.31291        3.25635       -8.08721
H          5.37593        4.83799       -8.85054
H          3.45720        4.07987       -6.54719
H          3.01221        4.21619       -8.25740
H          3.51105        5.65751       -7.35484
H         10.82365        5.52272       -6.23993
H         10.22754        5.05877       -7.82629
H         11.60751        3.22521       -6.74467
H          9.98798        2.69824       -7.15631
H         10.43023        1.84538       -4.96261
H         10.96110        3.53520       -3.02803
H         11.63382        4.55860       -4.30631
H         13.79219        4.22929       -3.85777
H         14.82556        1.44235       -3.92659
H         15.50753        2.67372       -2.84437
H         15.58457        2.74716       -5.92243
H         16.92591        2.30539       -4.86614
H         16.89757        4.61373       -3.85261
H         15.59090        5.08310       -4.94134
H         18.40173        4.20645       -5.84776
H         17.77537        5.86551       -5.84267
H         17.07742        4.65663       -6.93801
