88

C          0.80315        0.79820       -0.24874
C          2.31002        0.85289       -0.51448
C          3.08099        1.66964        0.52858
C          4.58844        1.74662        0.26431
C          5.34886        2.57910        1.30164
C          6.84388        2.73121        1.00206
C          7.59214        3.56170        2.05029
C          9.04933        3.86333        1.68151
C          9.77557        4.70139        2.73970
C         11.16313        5.18405        2.30154
C         11.85366        6.04991        3.36443
C         13.15278        6.65534        2.86263
O         13.70098        7.49482        3.91203
C         14.76780        8.29427        3.47525
N         14.92605        9.38650        4.43919
N         14.38410       10.60984        4.11838
C         14.62808       11.37368        5.14780
N         15.28906       10.68678        6.13344
C         15.46772        9.42192        5.68231
N         16.08755        8.44558        6.41345
C         16.67544        8.82210        7.61772
N         16.62008        9.98292        8.21142
N         17.39649        9.88015        9.36712
C         17.85938        8.65848        9.38571
O         17.42677        7.91315        8.28016
S         18.89666        7.83725       10.48646
C         19.17021        9.17705       11.72113
C         20.23736        8.72120       12.71979
C         21.66032        8.64220       12.15267
C         22.69811        8.20982       13.19433
C         24.13292        8.19725       12.65539
C         25.17309        7.74864       13.68859
C         26.60488        7.75085       13.14631
C         16.12973        7.00414        5.96079
O         17.05718        6.76874        4.96121
C         18.44490        6.67275        5.38659
C         19.26912        6.24010        4.19397
H          0.27876        0.21462       -1.01806
H          0.36219        1.80630       -0.23862
H          0.58565        0.33413        0.72491
H          2.49225        1.28086       -1.51518
H          2.71691       -0.17219       -0.54724
H          2.90587        1.23916        1.53083
H          2.66632        2.69302        0.56563
H          4.75915        2.17302       -0.74041
H          5.00884        0.72589        0.23289
H          5.21754        2.12704        2.30096
H          4.89212        3.58297        1.36484
H          6.96620        3.20192        0.01026
H          7.30959        1.73332        0.92080
H          7.55605        3.04242        3.02430
H          7.05899        4.51767        2.19969
H          9.07058        4.39967        0.71638
H          9.59709        2.91945        1.51500
H          9.86263        4.12106        3.67489
H          9.15615        5.58142        2.98766
H         11.06006        5.76355        1.36774
H         11.79928        4.31752        2.05348
H         12.05428        5.45229        4.26839
H         11.18443        6.87116        3.66814
H         12.97216        7.28181        1.96992
H         13.88899        5.87669        2.59192
H         14.55208        8.79312        2.51707
H         15.72265        7.74416        3.41150
H         14.34698       12.41864        5.22244
H         15.67349       10.94832        7.07666
H         18.20586        9.36787       12.20813
H         19.47786       10.07683       11.17200
H         19.94629        7.75523       13.16616
H         20.21277        9.44843       13.54804
H         21.93810        9.62887       11.74288
H         21.68932        7.94179       11.29997
H         22.43915        7.20546       13.57262
H         22.64255        8.88445       14.06665
H         24.39388        9.20662       12.29085
H         24.18770        7.53460       11.77315
H         24.91520        6.73766       14.04688
H         25.11261        8.40615       14.57235
H         26.70739        7.07560       12.28361
H         27.32338        7.42332       13.90979
H         26.90750        8.75591       12.81690
H         15.13423        6.77480        5.55838
H         16.31797        6.42071        6.87338
H         18.50817        5.94591        6.21433
H         18.77994        7.65464        5.76271
H         18.94124        5.26088        3.82264
H         20.32518        6.16173        4.48406
H         19.19532        6.96936        3.37652
