57

C          4.43788       -0.77193       -7.30351
C          4.47152        0.12904       -6.06746
C          5.12091       -0.55345       -4.85900
C          5.22645        0.32805       -3.60871
N          3.91929        0.74098       -3.06044
C          3.53269        2.03413       -3.18626
O          4.21716        2.93082       -3.68477
C          2.12886        2.40861       -2.63027
N          1.68572        3.66699       -3.22389
C          0.94432        3.73604       -4.38735
N          0.76623        4.95876       -4.79100
N          1.45213        5.72482       -3.87956
C          2.02105        4.96310       -2.90627
N          2.68828        5.45357       -1.85742
C          3.63047        4.76082       -0.96282
C          4.67177        5.73454       -0.38479
C          4.06085        6.89100        0.43852
C          3.24147        6.48965        1.66956
C          5.69860        4.92585        0.42021
C          1.60864        7.15779       -4.14719
C          0.42922        8.03604       -3.68563
C          0.59877        8.64459       -2.30913
F          0.83488        7.61967       -1.34815
C          3.08221       -0.30554       -2.47545
H          3.96179       -0.26659       -8.15437
H          3.87773       -1.69864       -7.10975
H          5.45330       -1.05800       -7.61335
H          3.44282        0.43651       -5.81124
H          5.01702        1.05907       -6.29470
H          6.14790       -0.85864       -5.11789
H          4.58534       -1.48880       -4.62266
H          5.77718        1.24920       -3.83348
H          5.76171       -0.20919       -2.81014
H          2.15915        2.50594       -1.53734
H          1.36335        1.66038       -2.86963
H          0.55600        2.85681       -4.89153
H          2.39929        6.39229       -1.57755
H          4.15185        3.99903       -1.55414
H          3.08351        4.27189       -0.13844
H          5.19637        6.18626       -1.24444
H          3.44120        7.53304       -0.21304
H          4.89430        7.53889        0.75197
H          2.35151        5.89823        1.40723
H          2.88427        7.38387        2.19641
H          3.83394        5.90538        2.38612
H          5.23053        4.38766        1.25721
H          6.46615        5.58900        0.84045
H          6.20713        4.18594       -0.21325
H          1.72393        7.22462       -5.23564
H          2.55926        7.47269       -3.69160
H         -0.50474        7.45944       -3.74805
H          0.32390        8.87222       -4.39431
H         -0.30111        9.18319       -1.98363
H          1.46695        9.31968       -2.26044
H          3.73629       -1.07690       -2.05015
H          2.43159       -0.78765       -3.22241
H          2.46428        0.08099       -1.65675
