65

C          0.61861        0.15093        0.35534
C          2.14810        0.11544        0.30364
C          2.72053       -1.30613        0.26273
C          4.25121       -1.35298        0.21817
C          4.81951       -2.77503        0.16495
C          6.35068       -2.82397        0.13576
C          6.91455       -4.24709        0.06555
C          8.44599       -4.30034        0.07239
C          9.00433       -5.72429       -0.02366
C         10.53416       -5.78306        0.05449
C         11.08075       -7.20898       -0.08430
C         12.61835       -7.32045       -0.06351
P         13.38196       -6.78570        1.49662
C         12.59855       -7.75456        2.90944
O         12.98503       -8.87348        3.14618
O         11.63303       -7.03776        3.45897
C         10.85836       -7.66162        4.57430
C         11.45568       -7.28685        5.91785
C         10.57986       -7.80255        7.07227
C         11.14483       -7.43321        8.44598
C         15.17513       -7.06687        1.55295
C         15.96420       -6.47962        0.36188
C         15.85683       -4.96230        0.24896
Br        16.93479       -4.30692       -1.24117
H          0.24003        1.18196        0.37886
H          0.23661       -0.36320        1.24994
H          0.17747       -0.34416       -0.52262
H          2.55966        0.64732        1.17831
H          2.50047        0.67291       -0.58081
H          2.31290       -1.83679       -0.61590
H          2.36358       -1.86738        1.14458
H          4.65816       -0.82964        1.10152
H          4.60842       -0.78514       -0.65901
H          4.42083       -3.29383       -0.72447
H          4.45362       -3.34705        1.03595
H          6.74882       -2.31625        1.03219
H          6.71885       -2.24308       -0.72803
H          6.53580       -4.74524       -0.84384
H          6.52673       -4.83609        0.91544
H          8.82246       -3.81959        0.99303
H          8.83808       -3.69790       -0.76543
H          8.66956       -6.18777       -0.96731
H          8.57745       -6.34217        0.78574
H         10.84737       -5.34195        1.01809
H         10.97054       -5.14462       -0.73347
H         10.75311       -7.63816       -1.04371
H         10.65284       -7.86022        0.69491
H         13.08099       -6.70831       -0.85524
H         12.95679       -8.35878       -0.21104
H         13.11276       -5.41515        1.70573
H         10.84343       -8.74530        4.40286
H          9.85455       -7.24323        4.43304
H         11.54772       -6.19083        5.98080
H         12.47013       -7.70839        6.00232
H         10.47915       -8.89730        6.99482
H          9.56242       -7.39107        6.96818
H         12.14534       -7.86318        8.59742
H         10.49742       -7.80911        9.24846
H         11.22588       -6.34336        8.56679
H         15.29834       -8.15986        1.61240
H         15.51862       -6.65220        2.51450
H         15.64682       -6.95277       -0.57887
H         17.01728       -6.76167        0.50334
H         16.22814       -4.45134        1.14545
H         14.83645       -4.61506        0.03788
