90

C          1.04831        0.97307       -0.85436
C          2.53451        0.68424       -0.62873
C          3.09961        1.33963        0.63658
C          4.59805        1.09191        0.83896
C          5.17253        1.76935        2.08706
C          6.68870        1.60303        2.23561
C          7.26564        2.33250        3.45272
C          8.79295        2.26227        3.55426
C          9.35735        3.07769        4.72180
C         10.88782        3.09691        4.78985
C         11.42613        3.96884        5.92855
C         12.95320        4.09217        5.94872
C         13.46362        5.02099        7.05412
C         14.98009        5.25497        7.00845
C         15.44164        6.22974        8.10235
C         16.89850        6.74487        8.05197
C         17.23594        7.46886        9.35677
C         17.13280        7.65255        6.82750
O         18.51309        7.90554        6.58901
C         19.18239        6.71027        6.21436
C         19.23878        5.72401        7.38641
N         17.80910        5.51695        7.87516
C         20.21756        6.16657        8.48293
C         20.12838        5.43431        9.82996
C         20.28633        3.91244        9.74110
S         19.99923        3.08456       11.32600
C         18.22756        2.92016       11.39474
S         17.17637        3.40793       10.15549
N         17.78148        2.33595       12.51989
C         18.67786        1.88461       13.60340
C         18.89076        2.94959       14.68230
C         16.34205        2.09871       12.75119
C         15.88341        0.72865       12.24956
H          0.67883        0.49315       -1.77125
H          0.86162        2.05362       -0.94744
H          0.43651        0.60454       -0.01741
H          3.11280        1.03121       -1.50222
H          2.69564       -0.40594       -0.57579
H          2.54268        0.97471        1.51796
H          2.91501        2.42801        0.59461
H          5.14556        1.45103       -0.05073
H          4.78793        0.00520        0.88994
H          4.66772        1.37509        2.98663
H          4.93173        2.84706        2.05595
H          7.18276        1.97867        1.32184
H          6.94007        0.52930        2.29359
H          6.81550        1.92458        4.37493
H          6.95863        3.39297        3.41335
H          9.23415        2.62931        2.61040
H          9.11220        1.20935        3.64701
H          8.95193        2.68848        5.67255
H          8.99041        4.11660        4.64278
H         11.28747        3.46842        3.82934
H         11.26979        2.06654        4.89779
H         11.07568        3.56942        6.89626
H         10.98806        4.97907        5.84397
H         13.29649        4.47054        4.96948
H         13.40647        3.09191        6.06412
H         13.18576        4.61643        8.04203
H         12.95557        5.99718        6.97095
H         15.24309        5.63111        6.00538
H         15.47750        4.27219        7.11907
H         15.26724        5.77604        9.09159
H         14.80320        7.12800        8.07167
H         16.46691        8.23100        9.53805
H         18.20333        7.98111        9.31774
H         17.22032        6.77744       10.20983
H         16.65961        8.62589        7.01197
H         16.67588        7.21390        5.92062
H         20.20008        6.99066        5.91395
H         18.68075        6.24889        5.34052
H         19.53523        4.73412        7.00632
H         17.79184        4.92275        8.76286
H         17.33930        4.92036        7.17900
H         20.11422        7.24688        8.65283
H         21.22168        6.02538        8.05125
H         19.17440        5.66190       10.32632
H         20.90856        5.83686       10.49145
H         21.31443        3.62440        9.47479
H         19.60408        3.44326        9.01737
H         19.63364        1.56551       13.16406
H         18.22117        0.98179       14.03281
H         19.37415        3.84433       14.26970
H         19.53516        2.54740       15.47489
H         17.93981        3.24998       15.14221
H         15.78718        2.90263       12.25238
H         16.18045        2.19373       13.83427
H         16.01193        0.64565       11.16309
H         14.81916        0.58945       12.48198
H         16.44017       -0.08737       12.73049
