68

O         10.43726        5.01947       -1.58158
C         10.70490        3.71738       -1.05114
C         10.27276        2.70939       -2.10252
N          8.84758        2.87045       -2.39909
C          8.33583        2.03520       -3.47298
C          7.94631        0.64180       -2.94268
C          6.77822        0.76936       -1.96630
C          6.47011       -0.41407       -1.02080
C          5.24208       -0.11143       -0.13844
C          3.93026        0.22897       -0.86342
O          2.93944        0.32514        0.12977
Si         1.28881        0.57636       -0.16389
C          0.55664        0.79650        1.54017
C          1.07059        2.10629       -1.23283
C          0.58923       -0.93821       -1.03148
N          6.18736       -1.63267       -1.83959
C          7.12958       -2.52607       -1.94243
S          8.50209       -2.29592       -0.99202
C          7.74346       -0.79593       -0.17388
C          7.59387       -1.06544        1.32434
C          8.94635       -1.38779        1.97058
O          9.89273       -0.41989        1.55417
Si        11.54615       -0.48739        1.91814
C         12.24915        1.00090        1.02632
C         11.78435       -0.37543        3.77386
C         12.25380       -2.09350        1.24332
O          7.54847       -0.24252       -4.00197
H         10.66662        5.68448       -0.91598
H         10.13618        3.54649       -0.11891
H         11.77913        3.58257       -0.83771
H         10.46139        1.69847       -1.70652
H         10.90395        2.83114       -3.00765
H          8.67139        3.85674       -2.58778
H          9.06579        1.89544       -4.30234
H          7.44394        2.51039       -3.90983
H          8.83340        0.22032       -2.43117
H          5.88246        1.01210       -2.55895
H          6.99014        1.64138       -1.32569
H          5.48704        0.73520        0.51835
H          5.03325       -0.97115        0.51356
H          3.67266       -0.56100       -1.60380
H          4.02210        1.17589       -1.42549
H          0.98701        1.67127        2.04620
H          0.73994       -0.08708        2.16668
H         -0.53066        0.94436        1.47559
H          1.52649        2.98950       -0.76392
H          0.00132        2.31933       -1.37525
H          1.51069        1.98097       -2.23259
H          0.74000       -1.84440       -0.42851
H          1.04381       -1.10066       -2.01950
H         -0.49230       -0.82005       -1.19102
H          5.36404       -1.66318       -2.44001
H          7.03350       -3.37541       -2.61995
H          8.50031       -0.01032       -0.29073
H          6.88701       -1.88221        1.53234
H          7.19348       -0.15091        1.78711
H          9.26695       -2.40820        1.67971
H          8.82482       -1.39225        3.06791
H         11.76324        1.92586        1.36510
H         12.11424        0.91507       -0.06071
H         13.32647        1.09552        1.22148
H         11.34252        0.54687        4.17564
H         12.85504       -0.37079        4.02375
H         11.33151       -1.22896        4.29772
H         12.04005       -2.20785        0.17076
H         11.86213       -2.97486        1.77000
H         13.34657       -2.10480        1.36371
H          8.17002       -0.12925       -4.74031
