58

C          1.04344        2.70457       -1.30657
C          2.00801        2.70840       -0.11736
C          2.83895        1.41901       -0.03131
C          3.91871        1.45260        1.04941
O          4.76366        0.31563        1.05970
C          4.18147       -0.79540        1.74860
C          5.11343       -2.00129        1.60138
C          6.35324       -1.94223        2.49503
O          6.24937       -1.64265        3.70528
N          7.52895       -2.26260        1.93388
C          8.78510       -2.34430        2.69239
C          8.98796       -3.68861        3.40334
C          9.06679       -4.89917        2.46662
C          9.31455       -6.21220        3.21367
N          4.00844       -0.45656        3.15898
C          3.61198        0.79620        3.43363
N          3.44585        1.19877        4.70584
C          3.56520        0.33464        5.88936
C          4.99194        0.20969        6.44785
C          5.61253        1.56183        6.82057
C          7.01966        1.39339        7.40145
S          7.78680        3.02518        7.58364
O          8.00266        3.58641        6.26805
O          7.09815        3.76830        8.61263
Cl         9.64650        2.48026        8.33769
N          3.33889        1.62680        2.41116
H          0.45208        3.62814       -1.33680
H          0.34119        1.86101       -1.24919
H          1.58620        2.62409       -2.25873
H          1.42612        2.84522        0.81039
H          2.68460        3.57654       -0.19533
H          3.36492        1.25184       -0.98397
H          2.17309        0.55586        0.12861
H          4.59844        2.30270        0.87300
H          3.19661       -1.03020        1.30985
H          5.36787       -2.09721        0.53855
H          4.55389       -2.90447        1.88959
H          7.53932       -2.51892        0.95280
H          8.77684       -1.52402        3.42162
H          9.59858       -2.15339        1.97873
H          8.17982       -3.83002        4.13870
H          9.92070       -3.60898        3.98491
H          9.87016       -4.73739        1.72786
H          8.13063       -4.98374        1.88895
H         10.26159       -6.18129        3.77107
H          9.36477       -7.06228        2.52126
H          8.51172       -6.41868        3.93621
H          4.77162       -0.89509        3.73979
H          3.31656        2.19260        4.86225
H          3.16698       -0.65469        5.62536
H          2.89449        0.76008        6.64879
H          5.63857       -0.31201        5.72590
H          4.93169       -0.44096        7.33466
H          4.97748        2.08975        7.54898
H          5.68055        2.19810        5.92411
H          7.68472        0.82860        6.73426
H          7.02248        0.93764        8.40011
H          2.88528        2.51328        2.60682
