56

C          5.74452        9.59168        6.15636
C          5.34022        8.11963        6.04938
C          5.76777        7.47429        4.72629
C          5.32181        6.01064        4.62131
N          5.66301        5.40013        3.33582
C          6.77666        4.65505        3.14469
O          7.58526        4.37800        4.03017
C          6.98353        4.12442        1.70815
C          8.47880        4.12512        1.43931
O          8.88994        5.48571        1.29869
C         10.30829        5.62589        1.42011
C         10.97029        4.91763        0.23870
N         10.47711        3.49397        0.13608
C          8.95697        3.32551        0.22023
C          8.32120        3.72551       -1.11889
C          8.99698        3.09757       -2.32644
O         10.18488        2.75981       -2.34514
O          8.18008        2.97710       -3.35881
C          8.75124        2.43811       -4.59269
C         10.64138        7.10994        1.46473
C          9.99003        7.76972        2.69241
C         10.48123        9.18170        2.99445
C         10.23630       10.27014        1.89487
Br         8.35685       10.36534        1.32438
F         10.62872       11.48059        2.31870
F         10.99009        9.96220        0.80224
Br         9.65957        9.79053        4.67370
F         11.85136        9.16078        3.18000
H          5.40893       10.02874        7.10594
H          5.30735       10.18827        5.34229
H          6.83600        9.71062        6.10290
H          4.24638        8.03010        6.15982
H          5.77686        7.55310        6.88841
H          6.86401        7.52237        4.61986
H          5.34439        8.04669        3.88262
H          4.23290        5.92787        4.75682
H          5.80352        5.40312        5.39886
H          5.08847        5.62702        2.53116
H          6.44836        4.73126        0.96334
H          6.58651        3.09781        1.66451
H          8.95337        3.69963        2.34778
H         10.62905        5.14326        2.36693
H         12.06316        4.87489        0.33349
H         10.72062        5.41800       -0.70592
H         10.91238        2.92319        0.86991
H         10.71546        3.09625       -0.82572
H          8.80368        2.24985        0.39650
H          8.34033        4.82045       -1.24617
H          7.26229        3.43877       -1.11496
H          7.93318        2.47196       -5.31546
H          9.08766        1.40881       -4.42557
H          9.59189        3.06148       -4.91712
H         10.29448        7.58132        0.53379
H         11.73447        7.22875        1.50549
H         10.21478        7.17919        3.59289
H          8.89888        7.78689        2.58939
