74

C          5.53697        9.84923        5.54647
C          5.23225        9.25564        4.16971
C          6.47424        9.10603        3.28515
C          6.17390        8.49641        1.91284
C          7.40779        8.35763        1.01578
C          7.10053        7.69481       -0.33092
C          8.32017        7.60639       -1.25828
C          7.97825        6.86875       -2.54359
O          9.08502        6.90296       -3.50981
C          9.98155        5.90552       -3.44402
O          9.97621        4.99800       -2.63235
C         11.02401        6.04102       -4.54989
C         12.46093        6.22026       -4.02191
O         13.37897        6.49949       -5.07340
C         13.52418        5.42409       -5.96023
N         13.83625        4.17791       -5.23747
C         13.60829        4.08438       -3.91005
N         14.01357        2.98697       -3.23990
N         12.97398        5.07721       -3.25085
C         12.91503        5.09703       -1.78039
C         14.25531        5.44829       -1.10303
C         14.37937        4.78285        0.28570
C         14.36704        3.32687        0.18670
C         14.34495        2.12147        0.05699
C         14.36109        3.06114       -6.04366
C         13.32475        1.99115       -6.40627
C         13.93116        0.88557       -7.27798
C         12.91935       -0.19643       -7.66998
C         13.52100       -1.29245       -8.55570
C         12.50742       -2.36786       -8.95156
H          4.62683        9.94163        6.15447
H          5.98148       10.85175        5.45898
H          6.24682        9.21997        6.10370
H          4.49246        9.88722        3.64997
H          4.75507        8.26854        4.29131
H          7.22003        8.48100        3.80762
H          6.94728       10.09507        3.15214
H          5.41786        9.11337        1.39676
H          5.71113        7.50347        2.05097
H          8.17969        7.76947        1.54253
H          7.84820        9.35500        0.84252
H          6.29801        8.25583       -0.83954
H          6.70009        6.68221       -0.15229
H          9.14105        7.08120       -0.74394
H          8.67835        8.61913       -1.50335
H          7.15446        7.35732       -3.07929
H          7.72313        5.81838       -2.35019
H         10.79421        6.90688       -5.18325
H         10.95338        5.12599       -5.15623
H         12.51180        7.09836       -3.36384
H         14.37731        5.67192       -6.60706
H         12.62700        5.27342       -6.58925
H         14.61054        2.31495       -3.70267
H         13.96378        2.92443       -2.22160
H         12.53666        4.12300       -1.43483
H         12.13196        5.81083       -1.50486
H         14.35711        6.53688       -0.99578
H         15.09485        5.11208       -1.72821
H         13.55911        5.10965        0.94624
H         15.31318        5.10973        0.76826
H         14.34050        1.05074        0.02395
H         15.23404        2.61675       -5.53526
H         14.76898        3.51321       -6.95960
H         12.48874        2.46983       -6.94152
H         12.89750        1.55475       -5.48907
H         14.77709        0.41722       -6.74459
H         14.35869        1.33295       -8.19192
H         12.06969        0.27227       -8.19616
H         12.49825       -0.65290       -6.75731
H         14.36921       -1.75958       -8.02770
H         13.94468       -0.83117       -9.46336
H         12.09070       -2.86954       -8.06595
H         12.96984       -3.13792       -9.58283
H         11.66744       -1.93614       -9.51517
