63

O          4.55921       -0.02525       -0.75884
C          4.54572       -1.45162       -0.48795
C          4.66373       -1.65583        1.01354
C          6.04291       -1.37071        1.67785
C          6.93466       -0.34560        0.97678
N          6.38537        1.05209        1.10651
C          6.16126        1.52016        2.53742
C          5.27258        0.47801        3.24331
C          5.85744       -0.94171        3.14911
C          4.90704        0.92758        4.66613
C          3.39907        0.73785        4.99502
N          3.06630       -0.69199        4.85809
N          3.18083        1.36526        6.30677
N          2.59884        1.44951        3.99303
C          7.49810        1.86488        3.21714
C          8.07419        3.26536        2.89311
C          9.24489        3.32439        1.90610
S          8.82703        2.95871        0.17238
C          9.74209        1.41556       -0.17358
S         10.55073        0.56440        1.00529
N          9.65907        1.04820       -1.47029
C          9.00842        1.84905       -2.52261
C          7.56497        1.42657       -2.80990
C         10.30079       -0.19991       -1.93371
C         11.75268        0.00607       -2.36530
H          4.27395        0.12587       -1.67228
H          5.36787       -1.94607       -1.03709
H          3.59634       -1.88161       -0.84209
H          4.39969       -2.70013        1.23419
H          3.87745       -1.04999        1.48838
H          6.62371       -2.30598        1.65324
H          7.04253       -0.53047       -0.09884
H          7.94176       -0.34057        1.41137
H          5.50193        1.06342        0.56195
H          7.05595        1.71490        0.64473
H          5.57024        2.44469        2.43721
H          4.31606        0.49697        2.69363
H          5.16964       -1.63797        3.64656
H          6.82149       -1.00230        3.68044
H          5.10128        2.00138        4.80066
H          5.52143        0.40517        5.41845
H          3.61852       -1.23704        5.52286
H          2.08756       -0.84440        5.11542
H          3.80182        0.97386        7.01807
H          2.22121        1.21001        6.62303
H          1.75598        0.93276        3.74857
H          2.33264        2.36515        4.35280
H          8.25623        1.09178        3.02181
H          7.31123        1.81960        4.29773
H          8.45703        3.70465        3.82727
H          7.26631        3.94169        2.56877
H         10.03397        2.59746        2.16634
H          9.68164        4.33132        1.88790
H          9.62226        1.73872       -3.42803
H          9.05802        2.90934       -2.24184
H          7.50365        0.36492       -3.08657
H          7.16765        2.01439       -3.64821
H          6.91309        1.59490       -1.94237
H          9.69391       -0.57486       -2.77088
H         10.24257       -0.92432       -1.11149
H         11.83586        0.74089       -3.17775
H         12.16527       -0.94395       -2.72969
H         12.36601        0.34407       -1.52147
