95

C          0.41406       16.68542        5.10823
C          1.94178       16.63036        5.02390
C          2.52462       15.26686        5.41226
C          4.05339       15.20534        5.33268
C          4.63749       13.84353        5.72188
C          6.16697       13.78752        5.64923
C          6.75185       12.42789        6.04429
C          8.28175       12.37337        5.98094
C          8.86207       11.01144        6.37479
C         10.39212       10.95369        6.31914
C         10.96443        9.58870        6.71408
C         12.49491        9.52786        6.67342
C         13.05673        8.15851        7.06854
C         14.58790        8.09592        7.04296
C         15.13923        6.71860        7.42679
C         16.66955        6.61716        7.38077
N         17.36836        7.53237        8.30005
C         17.68318        7.28401        9.57924
N         18.50575        8.07060       10.26815
C         19.38175        9.11606        9.71844
C         20.78135        9.04283       10.33305
C         21.54622        7.77073        9.95481
C         22.97317        7.72148       10.50884
C         23.71324        6.44180       10.10788
C         25.16898        6.38431       10.58010
C         25.88242        5.09681       10.15637
C         27.35597        5.03399       10.56933
C         28.05085        3.74131       10.13089
C         29.53169        3.66926       10.51825
C         30.20842        2.37167       10.07017
N         17.12618        6.18076       10.17053
N         17.58985        5.50938       11.29824
O         18.96952        5.19712       11.05366
O         17.58648        6.48870       12.36431
H          0.02911       17.67429        4.82327
H          0.06233       16.47383        6.12919
H         -0.04973       15.94380        4.44056
H          2.37531       17.40815        5.67551
H          2.26393       16.88308        3.99932
H          2.09279       14.48735        4.75951
H          2.20166       15.01198        6.43744
H          4.48362       15.98565        5.98539
H          4.37569       15.46046        4.30754
H          4.21220       13.06292        5.06647
H          4.31188       13.58620        6.74543
H          6.59142       14.57060        6.30235
H          6.49324       14.04131        4.62509
H          6.33196       11.64542        5.38769
H          6.42059       12.17172        7.06628
H          8.70218       13.15371        6.63989
H          8.61466       12.63063        4.95986
H          8.44400       10.23211        5.71349
H          8.52513       10.75274        7.39424
H         10.81114       11.73143        6.98199
H         10.73124       11.21126        5.30032
H         10.55184        8.81292        6.04552
H         10.61685        9.32729        7.72914
H         12.90906       10.30136        7.34442
H         12.84536        9.78773        5.65923
H         12.65075        7.38668        6.39224
H         12.69890        7.89417        8.07918
H         14.98646        8.86515        7.72819
H         14.95077        8.36188        6.03448
H         14.74594        5.95213        6.73978
H         14.76358        6.44076        8.42873
H         17.03296        6.86632        6.37391
H         17.01742        5.59598        7.59355
H         17.56110        8.46979        7.96396
H         18.56204        7.88640       11.27029
H         18.91989       10.09969        9.89755
H         19.45521        8.96805        8.63054
H         20.70522        9.14114       11.42996
H         21.33115        9.93430        9.99242
H         21.58548        7.69275        8.85340
H         20.99125        6.88365       10.30296
H         22.94649        7.80553       11.60919
H         23.53659        8.60043       10.15103
H         23.68842        6.34058        9.00831
H         23.16602        5.56696       10.50237
H         25.20579        6.48280       11.67912
H         25.71627        7.25557       10.17999
H         25.81005        4.98810        9.05959
H         25.34774        4.22793       10.57977
H         27.43552        5.14023       11.66554
H         27.89137        5.90037       10.14282
H         27.95721        3.63186        9.03565
H         27.51903        2.87586       10.56497
H         29.62677        3.77747       11.61202
H         30.06273        4.53268       10.08294
H         29.72169        1.49194       10.51722
H         31.26753        2.34750       10.36073
H         30.16184        2.25384        8.97717
H         16.29900        5.75487        9.76848
H         19.03213        4.27592       11.36609
H         17.39566        5.95248       13.15515
