55

C          1.54661       -2.97533        2.93921
C          3.02818       -2.94160        2.56142
C          3.26557       -3.02119        1.04888
C          4.75543       -3.01396        0.68339
C          4.98197       -3.05772       -0.81628
O          6.41165       -3.09565       -1.06430
C          6.76665       -3.09053       -2.42217
C          8.26488       -3.20719       -2.51047
N          8.90472       -3.31715       -1.34108
N         10.20892       -3.44452       -1.12862
C         10.97529       -3.46631       -2.22490
C         10.40755       -3.35484       -3.51958
C          9.03492       -3.21815       -3.69703
C          8.35101       -3.08697       -5.03476
C          9.26879       -2.77389       -6.23220
O         10.21961       -3.83023       -6.42799
C          8.46620       -2.48689       -7.49416
C         12.45133       -3.60287       -2.01214
C         13.25192       -2.30729       -2.33077
C         12.83410       -1.10425       -1.45720
C         13.06959       -1.24922        0.05008
C         14.75335       -2.60783       -2.24728
H          1.41396       -2.92370        4.02784
H          1.06638       -3.90123        2.59014
H          1.00066       -2.12929        2.49755
H          3.55402       -3.77696        3.05345
H          3.48990       -2.01902        2.95083
H          2.75781       -2.17388        0.55645
H          2.79231       -3.93584        0.65283
H          5.25412       -3.88138        1.14546
H          5.23602       -2.11053        1.09187
H          4.55975       -2.16486       -1.31133
H          4.52205       -3.95562       -1.26692
H          6.44193       -2.15998       -2.93280
H          6.30629       -3.93474       -2.97709
H          8.31117       -3.30394       -0.50018
H         11.06138       -3.40633       -4.39041
H          7.58158       -2.29981       -4.96111
H          7.80079       -4.02306       -5.24331
H          9.87334       -1.88503       -5.98200
H          9.86171       -4.45613       -7.07817
H          7.84762       -3.35493       -7.77281
H          9.14360       -2.26007       -8.32681
H          7.79610       -1.62723       -7.35770
H         12.82231       -4.40700       -2.66751
H         12.62789       -3.91455       -0.97377
H         13.02508       -2.03543       -3.37773
H         11.76924       -0.87698       -1.63722
H         13.38686       -0.22617       -1.82650
H         12.49881       -2.08229        0.48430
H         12.75681       -0.33554        0.57227
H         14.13022       -1.40844        0.28587
H         15.04479       -2.94758       -1.24354
H         15.33899       -1.70772       -2.47873
H         15.04387       -3.39101       -2.96102
