42

C          5.64125       -0.65932       -1.20138
C          4.70147        0.40656       -0.67465
O          5.02419        0.74258        0.72843
C          4.44542        0.00487        1.67369
O          3.65533       -0.90703        1.51560
C          4.92997        0.42328        3.06625
N          4.33387       -0.47603        4.05606
C          3.88408        0.22462        5.12057
N          3.23976       -0.30764        6.15419
Si         2.85718       -2.06797        6.50700
C          1.99554       -1.96848        8.15961
C          1.73041       -2.67285        5.13887
C          4.48453       -2.98184        6.56892
N          4.22714        1.52544        4.98522
C          4.51686        1.84246        3.57233
C          3.28043        2.45840        2.87629
C          2.80373        3.69504        3.57567
C          1.75409        3.82739        4.39553
Br         0.59171        2.39118        4.84257
Br         3.86916        5.25561        3.28557
H          5.42436       -0.83251       -2.26446
H          5.50679       -1.61150       -0.67263
H          6.68872       -0.34284       -1.11679
H          3.65112        0.09253       -0.71397
H          4.82394        1.36252       -1.19625
H          6.02835        0.33509        3.08364
H          3.83471       -1.28932        3.69537
H          2.88267        0.37745        6.81759
H          1.07817       -1.36496        8.11162
H          2.65146       -1.55241        8.93708
H          1.70484       -2.97817        8.48282
H          0.83617       -2.04119        5.05049
H          1.39595       -3.69417        5.37356
H          2.21283       -2.72018        4.15197
H          5.12745       -2.59127        7.36908
H          5.03735       -2.92133        5.62215
H          4.29930       -4.04599        6.77512
H          3.84443        2.23872        5.59965
H          5.36713        2.53245        3.51216
H          2.46090        1.72324        2.85522
H          3.54850        2.70352        1.83910
H          1.46226        4.76396        4.86404
