68

C          3.53591        0.68557       -2.14095
C          3.61061       -0.24800       -1.19067
C          4.51021       -1.45499       -1.25046
C          5.49460       -1.47997       -0.07205
C          6.48408       -0.29440       -0.13741
N          7.44637       -0.22979        0.94706
C          6.94146        0.25616        2.24283
C          6.37611        1.67492        2.17776
C          6.01513        2.22785        3.56176
C          5.30281        3.58316        3.49509
C          4.93409        4.15515        4.86771
C          4.14865        5.46946        4.78764
C          3.77302        6.03766        6.15832
C          8.19546       -1.47331        1.00936
C          7.31405       -2.72590        1.11447
N          6.32476       -2.76125       -0.03187
C          5.56284       -4.06622       -0.08816
C          5.63995       -4.64630       -1.51971
O          6.96564       -4.31204       -1.95192
C          7.18772       -4.16885       -3.38459
C          8.25849       -3.12816       -3.55316
C          9.61382       -3.48093       -3.48985
C         10.60280       -2.49641       -3.54870
C         10.24602       -1.14987       -3.66899
C          8.89726       -0.78856       -3.74381
C          7.91048       -1.77501       -3.68832
C          5.36439       -6.14385       -1.53178
H          2.84948        1.52745       -2.05909
H          4.14983        0.63773       -3.04316
H          2.97295       -0.16851       -0.30364
H          5.06733       -1.45990       -2.20113
H          3.87702       -2.35688       -1.23712
H          4.93963       -1.46672        0.88037
H          5.89876        0.63030       -0.18278
H          7.03611       -0.36339       -1.09310
H          7.80001        0.23968        2.93246
H          6.17400       -0.41295        2.69382
H          5.46817        1.69502        1.55086
H          7.11187        2.33001        1.68425
H          6.92958        2.31831        4.17249
H          5.36740        1.50566        4.08962
H          4.38601        3.47746        2.88788
H          5.93950        4.30579        2.95575
H          5.85350        4.31276        5.45850
H          4.34002        3.41054        5.42701
H          3.23365        5.30633        4.19299
H          4.74171        6.21368        4.22933
H          3.15534        5.32908        6.72992
H          3.20379        6.97183        6.06235
H          4.66810        6.25535        6.75964
H          8.87974       -1.45616        1.86920
H          8.81958       -1.55682        0.10117
H          6.73242       -2.75553        2.04620
H          7.91500       -3.64153        1.03871
H          6.89881       -2.82341       -0.91037
H          4.52949       -3.91040        0.24149
H          6.05045       -4.75262        0.61547
H          4.91487       -4.12937       -2.17496
H          6.24487       -3.85512       -3.86273
H          7.48705       -5.14323       -3.79980
H          9.89457       -4.53180       -3.39728
H         11.65466       -2.78050       -3.50765
H         11.01984       -0.38347       -3.72008
H          8.61809        0.25916       -3.86098
H          6.85781       -1.49510       -3.77657
H          6.11449       -6.68056       -0.93521
H          5.39265       -6.53291       -2.55735
H          4.36685       -6.36183       -1.12346
