38

N          1.25887        0.52648        0.10579
N          2.62823        0.56708       -0.17142
C          3.10959        0.06158       -1.32539
N          4.43390       -0.10840       -1.58628
C          4.54709       -0.63753       -2.86317
N          3.35886       -0.81860       -3.37549
N          2.46146       -0.37802       -2.42151
C          1.02803       -0.35177       -2.75364
C          0.46565        1.04802       -2.92071
C          1.29600        2.14269       -3.19608
C          0.76280        3.42365       -3.35787
C         -0.61512        3.61297       -3.24954
C         -1.44644        2.52194       -2.98902
C         -0.93276        1.22772       -2.82228
C         -1.86584        0.07136       -2.56177
C          5.84367       -0.96221       -3.52798
C          6.55459        0.22098       -4.22068
C          6.83999        1.40514       -3.31340
F          7.29199        1.00103       -2.07732
F          7.76155        2.23030       -3.83163
F          5.71317        2.14464       -3.07375
H          1.10671        0.08367        1.01316
H          0.86309        1.46852        0.10102
H          3.27294        1.07262        0.43569
H          5.20712        0.15677       -0.98049
H          0.48867       -0.89926       -1.97268
H          0.96143       -0.93269       -3.68474
H          2.37377        2.00351       -3.30462
H          1.42181        4.26449       -3.57562
H         -1.04498        4.60721       -3.37448
H         -2.52535        2.67133       -2.91559
H         -2.90376        0.41748       -2.49294
H         -1.62834       -0.44935       -1.62023
H         -1.82179       -0.68088       -3.36466
H          5.63128       -1.72623       -4.28626
H          6.52060       -1.41689       -2.79024
H          5.96759        0.59493       -5.06994
H          7.51857       -0.13184       -4.61017
