64

C          0.60348        0.98152        0.07462
C          2.12073        1.14276        0.19235
C          2.74175        0.22786        1.25361
C          4.26403        0.35847        1.36681
C          4.86423       -0.55028        2.44581
C          6.39379       -0.47666        2.52622
C          6.99935       -1.32368        3.65836
N          6.60467       -2.74470        3.55202
C          7.33722       -3.68007        2.92720
N          6.82817       -4.91852        2.75930
C          7.50456       -6.04780        2.11915
C          6.46967       -7.12162        1.73306
C          7.09227       -8.23881        0.97205
C          7.18573       -9.51654        1.36059
F          6.72391       -9.95421        2.52789
F          7.72802      -10.47936        0.64407
F          7.60168       -7.89608       -0.24177
N          8.56911       -3.38179        2.49641
C          9.14499       -2.03024        2.57729
C          8.53803       -1.25975        3.75808
C          9.09633       -1.76066        5.10740
C          8.62454       -0.96521        6.33173
C          9.30929       -1.46441        7.60778
S          8.63028       -0.56295        9.03008
C          9.29438       -1.47104       10.39212
S         10.35817       -2.71760       10.27185
N          8.81297       -0.97975       11.61169
C          7.74121       -0.10490       11.83584
C          7.70706        0.09531       13.18645
N          8.72527       -0.60931       13.81846
C          9.36402       -1.24091       12.87196
H          0.18704        1.65933       -0.68216
H          0.10144        1.20132        1.02825
H          0.33100       -0.04412       -0.21476
H          2.36378        2.19118        0.43227
H          2.59142        0.93903       -0.78411
H          2.48294       -0.82114        1.02340
H          2.28149        0.44404        2.23364
H          4.53102        1.40678        1.58409
H          4.72625        0.12291        0.39243
H          4.54899       -1.58818        2.23481
H          4.43065       -0.28708        3.42703
H          6.70434        0.56661        2.69958
H          6.82708       -0.77426        1.55657
H          6.57040       -0.97541        4.60941
H          5.63636       -2.97176        3.75162
H          5.95780       -5.12130        3.24080
H          8.26626       -6.48433        2.78675
H          8.00213       -5.69489        1.20267
H          5.68310       -6.65838        1.11287
H          5.98936       -7.53182        2.63365
H          9.12564       -4.12631        2.09349
H          8.97592       -1.50332        1.62602
H         10.22875       -2.14400        2.70718
H          8.82331       -0.20410        3.63095
H         10.19585       -1.71141        5.05237
H          8.84976       -2.82584        5.25254
H          7.53396       -1.05659        6.45733
H          8.83529        0.10653        6.18361
H         10.39642       -1.30713        7.57799
H          9.13498       -2.53665        7.77889
H          7.10534        0.24659       11.03269
H          7.00491        0.69971       13.75243
H         10.22921       -1.88661       12.97820
