55

C          2.65894        4.95423        2.81425
C          2.15541        4.14240        1.61920
C          2.86220        2.79245        1.39291
C          2.79112        1.83292        2.59923
N          1.39104        1.48106        2.91960
C          0.82201        1.37196        4.14666
N         -0.38984        1.94429        4.31625
C         -1.19253        1.92514        5.54741
C         -0.75375        0.79017        6.47582
C          0.77978        0.78790        6.51820
N          1.38572        0.69823        5.16499
C          2.54964       -0.18097        5.02351
C          2.23271       -1.68991        4.93970
C          1.73603       -2.13553        3.54977
F          2.56476       -1.75332        2.55263
F          1.63368       -3.48665        3.50723
F          0.50073       -1.62574        3.27744
O          3.45139       -2.32685        5.25132
C         -1.40220       -0.55327        6.08297
C         -1.21781       -1.73803        7.04621
C         -1.83321       -1.57279        8.45318
S         -0.56829       -1.22599        9.69152
O          0.31145       -2.37086        9.79915
O         -0.03066        0.09514        9.44753
O         -1.45408       -1.11858       11.03934
C          2.37775        2.11467        0.10307
H          2.16419        5.93316        2.85691
H          3.74104        5.13576        2.74434
H          2.46842        4.45389        3.77569
H          2.28094        4.73480        0.70013
H          1.06419        3.98366        1.70382
H          3.94091        2.99695        1.27805
H          3.24733        2.29733        3.48417
H          3.36199        0.92489        2.34842
H          0.73192        1.69727        2.17625
H         -0.63999        2.64408        3.62489
H         -2.25005        1.81986        5.26663
H         -1.07470        2.89691        6.05191
H         -1.08021        1.06103        7.48974
H          1.15428       -0.05941        7.10176
H          1.14891        1.69762        7.01685
H          3.17782       -0.05258        5.91539
H          3.15814        0.10218        4.16216
H          1.42778       -1.95560        5.64992
H          3.32900       -3.29100        5.23108
H         -1.04835       -0.86561        5.08827
H         -2.48374       -0.37394        5.96828
H         -0.15687       -2.01550        7.14973
H         -1.69204       -2.61261        6.57976
H         -2.31830       -2.49686        8.79221
H         -2.56543       -0.75547        8.51488
H         -1.29272       -1.92221       11.57187
H          1.29604        1.89959        0.11736
H          2.90352        1.16809       -0.08215
H          2.54934        2.77052       -0.76035
