89

N          1.77466        1.41665        1.87193
C          3.02509        0.85813        1.39839
C          2.92093        0.61908       -0.14105
C          4.21167        0.19909       -0.73387
N          5.14393        1.00615       -1.24866
N          6.27135        0.35568       -1.63214
C          6.03108       -0.90705       -1.34814
N          4.76452       -1.03932       -0.78272
C          4.10462       -2.29084       -0.38288
C          3.33641       -2.92736       -1.54759
O          2.71504       -4.06264       -1.00827
C          1.82945       -4.71410       -1.93132
C          1.25060       -5.93506       -1.22965
O          0.25469       -6.43403       -2.10634
C         -0.44809       -7.55821       -1.71734
C         -1.46671       -7.96486       -2.58897
C         -2.23619       -9.07877       -2.28043
C         -2.03311       -9.82526       -1.10236
C         -0.99576       -9.40669       -0.26311
C         -0.20626       -8.28488       -0.55076
C         -2.91382      -11.04770       -0.79689
C         -4.43588      -10.69368       -0.85155
C         -5.15441       -9.75211        0.16321
C         -5.35654      -10.41409        1.54233
C         -4.44511       -8.39790        0.35228
C         -6.55424       -9.48577       -0.43428
C         -2.67235      -12.09035       -1.92027
C         -2.52542      -11.72353        0.53039
C          6.97072       -2.03672       -1.58224
C          8.37253       -1.53800       -1.95536
C          9.35671       -2.63386       -2.37987
C         10.26445       -3.29686       -1.27051
C          9.63678       -4.09919       -0.06340
C          8.76152       -5.39634       -0.27524
C          9.32362       -6.66494       -1.03222
C         10.61610       -7.36709       -0.46894
F         10.48245       -7.62631        0.84328
F         10.78500       -8.52264       -1.12984
F         11.70136       -6.59896       -0.65815
F          8.31849       -7.57835       -0.98112
F          9.54483       -6.33930       -2.32809
F          8.38272       -5.78595        0.96747
F          7.62957       -5.02589       -0.95284
F         10.65704       -4.42725        0.75932
F          8.81921       -3.22305        0.61477
F         11.15394       -4.10501       -1.89016
F         10.94918       -2.27148       -0.68053
F          8.71744       -3.62640       -3.07726
F         10.26073       -2.06210       -3.23548
H          1.90369        1.97548        2.71253
H          1.07672        0.70287        2.07584
H          3.33662       -0.08455        1.88908
H          3.82754        1.58717        1.58257
H          2.59105        1.55491       -0.61278
H          2.14680       -0.13238       -0.35298
H          5.08109        2.01441       -1.37058
H          3.41898       -2.07521        0.44484
H          4.87143       -2.97792       -0.00466
H          4.02638       -3.18649       -2.37627
H          2.59478       -2.20581       -1.94995
H          2.37581       -5.01311       -2.84348
H          1.01277       -4.02947       -2.22346
H          0.81835       -5.63949       -0.25616
H          2.04153       -6.68348       -1.04492
H         -1.64231       -7.39386       -3.50115
H         -3.02630       -9.36333       -2.97677
H         -0.78548       -9.94930        0.65740
H          0.58398       -8.00116        0.14385
H         -4.97875      -11.65455       -0.83008
H         -4.62703      -10.28271       -1.85619
H         -4.41941      -10.52024        2.10164
H         -5.80472      -11.41401        1.44430
H         -6.03501       -9.80501        2.15741
H         -3.45869       -8.50793        0.82158
H         -5.05224       -7.74706        0.99971
H         -4.29816       -7.87702       -0.60436
H         -7.11088      -10.42274       -0.58572
H         -6.48093       -8.97731       -1.40716
H         -7.14942       -8.84800        0.23569
H         -2.98786      -11.71271       -2.90261
H         -3.23732      -13.01191       -1.71823
H         -1.60587      -12.34754       -1.98553
H         -2.55007      -11.03774        1.38600
H         -1.51423      -12.15206        0.47224
H         -3.21877      -12.54734        0.74745
H          6.57135       -2.67606       -2.38584
H          6.99560       -2.66134       -0.67930
H          8.81921       -0.95833       -1.13694
H          8.30735       -0.86490       -2.82083
