60

C         13.01866        5.89731        1.04094
C         12.38950        5.57883       -0.31745
C         11.97153        4.11066       -0.45769
C         11.31293        3.78527       -1.80229
C         10.90961        2.31222       -1.93384
C         10.20751        1.98977       -3.25793
C          9.82020        0.50832       -3.35528
N          9.07857        0.15060       -4.57000
C          9.61670       -0.12234       -5.77383
N          8.81489       -0.38780       -6.81764
C          7.35559       -0.52959       -6.76299
C          6.79707       -0.77229       -8.16714
C          7.31767       -2.04868       -8.83590
C          6.74184       -2.27800      -10.23749
C          7.44393       -3.41997      -10.98183
N          8.86716       -3.10340      -11.19616
N         10.94936       -0.14516       -5.93843
C         11.64121       -0.50396       -7.18053
C         13.16454       -0.53719       -6.97876
C         13.59541       -1.60360       -5.96159
C         13.84770       -0.75355       -8.33504
H         13.30747        6.95447        1.11151
H         13.92183        5.29412        1.21579
H         12.31879        5.68937        1.86375
H         13.10019        5.83148       -1.12275
H         11.50916        6.22405       -0.47775
H         11.27621        3.85015        0.35956
H         12.85666        3.46543       -0.31715
H         12.00050        4.05248       -2.62378
H         10.42034        4.42090       -1.93550
H         10.24407        2.04126       -1.09595
H         11.80579        1.67611       -1.82439
H         10.85584        2.26863       -4.10648
H          9.29598        2.60144       -3.35818
H          9.17551        0.22987       -2.50997
H         10.70371       -0.14626       -3.27536
H          8.07000        0.24439       -4.54014
H          9.26060       -0.65422       -7.68975
H          6.91582        0.39420       -6.35086
H          7.08901       -1.36835       -6.09615
H          7.01829        0.10579       -8.79724
H          5.70078       -0.81314       -8.07776
H          7.09032       -2.91882       -8.19598
H          8.41646       -2.02875       -8.94553
H          6.83795       -1.35205      -10.83174
H          5.66298       -2.49206      -10.17770
H          6.89298       -3.63321      -11.91576
H          7.39471       -4.33681      -10.37330
H          8.96597       -2.44248      -11.96893
H          9.37740       -3.94074      -11.47722
H         11.52243        0.15499       -5.15822
H         11.39309        0.22863       -7.96769
H         11.29697       -1.49882       -7.51581
H         13.46541        0.45759       -6.60101
H         13.31666       -2.61104       -6.30521
H         13.14896       -1.45881       -4.96654
H         14.68474       -1.58663       -5.82851
H         13.57622       -1.72960       -8.76442
H         14.93909       -0.73591       -8.22103
H         13.57546        0.02560       -9.06010
