56

C          6.56612        0.41341       -4.59153
C          6.13358       -0.08454       -3.21069
C          6.50112       -1.54888       -2.94753
C          6.11864       -2.03335       -1.54597
C          6.50583       -3.49091       -1.28052
C          6.32517       -3.90590        0.18332
C          6.82585       -5.30785        0.52116
O          8.20842       -5.56733        0.15603
C          9.12471       -4.67044        0.71878
N         10.45831       -5.13426        0.31607
C         11.31193       -5.86692        1.07113
N         12.37335       -6.07706        0.29938
N         12.24495       -5.53869       -0.93635
C         11.06097       -4.96013       -0.92858
C         10.45681       -4.24676       -2.10080
C         10.82153       -2.75221       -2.08599
O         10.37339       -2.18927       -0.84855
C         10.88579       -4.89862       -3.42484
C         11.11270       -6.36318        2.46240
C         12.27996       -7.21698        2.97694
O         13.31076       -7.42260        2.35382
O         11.99759       -7.67369        4.18962
C         13.02311       -8.51204        4.85161
C         12.84956       -9.97344        4.48960
H          6.28405        1.46361       -4.74484
H          6.09982       -0.17550       -5.39510
H          7.65701        0.34234       -4.72024
H          5.04359        0.03873       -3.09839
H          6.58882        0.54852       -2.43005
H          7.59087       -1.68061       -3.08698
H          6.02112       -2.19010       -3.70724
H          5.03438       -1.90311       -1.38921
H          6.61174       -1.38858       -0.79702
H          7.56006       -3.62673       -1.57255
H          5.92732       -4.16514       -1.93414
H          5.25722       -3.88120        0.45584
H          6.80402       -3.16086        0.84216
H          6.27303       -6.07257       -0.04008
H          6.70085       -5.51466        1.59986
H          9.08768       -4.66053        1.82428
H          9.02422       -3.63732        0.35192
H         13.19060       -6.61284        0.62197
H          9.36376       -4.32857       -2.00086
H         10.32380       -2.27151       -2.94514
H         11.91343       -2.63759       -2.20338
H         10.58145       -1.24240       -0.84318
H         11.97186       -4.84125       -3.56984
H         10.39565       -4.38805       -4.26329
H         10.59447       -5.95539       -3.45385
H         10.18639       -6.95635        2.52000
H         10.97564       -5.51799        3.15602
H         12.84332       -8.32354        5.91569
H         14.00902       -8.12526        4.56673
H         11.84360      -10.33065        4.74388
H         13.57431      -10.56773        5.06340
H         13.03927      -10.15190        3.42384
