74

C          2.68869       -0.80252        0.55170
C          4.03773       -0.14320        0.84812
C          4.44161        0.88820       -0.21717
C          5.78687        1.51615        0.10914
O          6.13265        2.57998       -0.85919
C          6.80173        2.23142       -1.94471
O          7.18718        1.08380       -2.18950
C          7.03845        3.41163       -2.87799
C          8.36274        3.30534       -3.66174
N          8.38550        1.93955       -4.34835
C          7.53934        1.80422       -5.58489
C          7.90590        2.87790       -6.59663
C          7.85626        4.27489       -5.96963
C          8.68980        4.45234       -4.67129
C         10.23517        4.51993       -4.91410
C         11.05848        3.24982       -5.17378
C         12.55789        3.57403       -5.15570
S         13.60942        2.10240       -5.04162
C         13.46862        1.67820       -3.33146
S         12.57696        2.50131       -2.20762
N         14.21913        0.54618       -3.00894
C         15.02019       -0.23777       -3.85852
N         15.57342       -1.22996       -3.22252
C         15.14151       -1.11965       -1.90185
C         14.31494       -0.04694       -1.74323
C          8.31542        5.80150       -3.98757
C          8.82127        7.04862       -4.73320
O          8.80356        7.08596       -5.96926
N          9.27152        8.10303       -3.98727
C          9.23436        8.18050       -2.51953
C          7.85516        8.46960       -1.91733
C          9.73385        9.29378       -4.72690
C          8.63674       10.32279       -5.00710
H          2.43013       -1.53341        1.32864
H          2.70442       -1.33302       -0.41136
H          1.87912       -0.05965        0.51147
H          4.81910       -0.91751        0.92014
H          4.00062        0.34726        1.83465
H          3.67832        1.68002       -0.28215
H          4.49189        0.40073       -1.20412
H          6.59963        0.77868        0.10997
H          5.76895        2.04944        1.06726
H          7.03503        4.32803       -2.27967
H          6.16736        3.48269       -3.54998
H          9.18223        3.24313       -2.92615
H          8.03593        1.28051       -3.58921
H          9.36107        1.71210       -4.57640
H          6.49069        1.88558       -5.26716
H          7.69483        0.78431       -5.96022
H          7.19592        2.82081       -7.43338
H          8.89506        2.66515       -7.02825
H          6.80392        4.51922       -5.74397
H          8.18376        5.03819       -6.68434
H         10.67246        4.98564       -4.01426
H         10.39576        5.23172       -5.73586
H         10.80631        2.76461       -6.12760
H         10.91792        2.52405       -4.35458
H         12.80782        4.21681       -4.29932
H         12.88653        4.07172       -6.07912
H         15.14183       -0.00978       -4.91354
H         15.46346       -1.83051       -1.14734
H         13.79274        0.37099       -0.89286
H          8.68875        5.78847       -2.95425
H          7.22037        5.90520       -3.93155
H          9.93074        8.98174       -2.23792
H          9.65597        7.25866       -2.09014
H          7.44715        9.41590       -2.29239
H          7.93333        8.54255       -0.82400
H          7.12917        7.67858       -2.14929
H         10.15307        8.93463       -5.67424
H         10.54801        9.74138       -4.13890
H          7.81795        9.86967       -5.58085
H          9.04830       11.14957       -5.60183
H          8.22499       10.75104       -4.08345
