70

C          0.93608        0.06799        0.17476
C          2.44459        0.27691        0.32726
C          3.04469        1.15932       -0.77313
C          4.55463        1.37547       -0.62322
C          5.14785        2.23397       -1.74944
C          6.63792        2.43044       -1.56904
O          7.13325        3.20854       -2.72592
C          8.41086        3.52394       -2.73768
O          9.21718        3.21586       -1.85132
C          8.80193        4.34629       -3.95923
C         10.26587        4.13911       -4.37714
N         11.13270        4.46405       -3.15964
C         12.61552        4.15896       -3.27870
C         13.30133        5.23673       -4.12349
C         14.83002        5.09490       -4.15508
C         15.46724        6.30762       -4.83853
S         17.24612        6.00303       -5.02108
C         17.84708        7.63349       -5.49197
S         16.85438        8.96856       -5.54089
N         19.16858        7.63618       -5.79207
C         20.06252        6.47629       -5.71942
C         21.20699        6.77131       -4.74418
O         21.91008        7.95100       -5.11221
C         21.03360        9.07864       -5.15069
C         19.88640        8.86869       -6.13804
C         12.72762        2.73052       -3.81542
O         12.02589        2.59685       -5.04447
C         10.61540        2.71321       -4.86310
C          9.98313        2.36729       -6.22444
C          8.56782        2.03452       -6.15663
C          7.39443        1.74851       -6.09245
H          0.53783       -0.57000        0.97490
H          0.69377       -0.41307       -0.78437
H          0.39357        1.02411        0.21162
H          2.95532       -0.70086        0.32593
H          2.65792        0.72810        1.31102
H          2.53418        2.13800       -0.77790
H          2.83777        0.70496       -1.75788
H          5.06327        0.39620       -0.60059
H          4.76083        1.84926        0.35196
H          4.65015        3.21620       -1.77815
H          4.96236        1.75244       -2.72288
H          7.19023        1.47993       -1.55519
H          6.88716        2.99069       -0.65677
H          8.62271        5.40823       -3.71746
H          8.13424        4.10100       -4.79354
H         10.53523        4.85176       -5.16880
H         10.64870        3.92127       -2.37899
H         11.01999        5.46225       -2.93909
H         13.00221        4.18850       -2.24749
H         13.04340        6.22599       -3.70539
H         12.91505        5.21279       -5.15402
H         15.10555        4.17398       -4.69279
H         15.22620        4.99665       -3.13121
H         15.33897        7.23108       -4.25668
H         15.03488        6.48072       -5.83459
H         20.46830        6.28431       -6.72700
H         19.51305        5.58306       -5.39949
H         21.93903        5.95269       -4.75925
H         20.79947        6.86777       -3.71826
H         21.64699        9.93598       -5.45697
H         20.62325        9.27622       -4.14151
H         20.28122        8.76495       -7.16241
H         19.17342        9.70088       -6.10888
H         12.34342        2.00727       -3.07128
H         13.77692        2.48492       -4.01645
H         10.28164        1.97124       -4.11157
H         10.54678        1.50243       -6.60842
H         10.15604        3.18875       -6.93956
H          6.35788        1.48394       -6.05550
