40

F          3.74950        0.28426       -1.43655
C          2.66053        0.26759       -0.54809
C          2.98395        1.14539        0.65415
C          4.18361        0.59652        1.44040
C          4.80216        1.52027        2.50980
N          5.10800        2.84925        1.86603
C          4.73039        3.89006        2.51610
C          3.99202        3.53841        3.74646
C          3.76220        2.01486        3.58437
C          3.61271        1.14863        4.84818
O          3.68892       -0.06041        4.74202
C          3.26660        1.83374        6.14787
C          6.20692        0.97178        2.98494
C          6.83290        1.71337        4.17506
O          7.10492        3.08888        3.85325
C          6.29732       -0.55307        3.26275
C          7.67753       -1.12234        2.91565
H          2.48796       -0.78107       -0.25858
H          1.78188        0.64206       -1.09244
H          2.07761        1.19151        1.27988
H          3.16601        2.16734        0.28325
H          4.97617        0.31548        0.72820
H          3.88305       -0.32595        1.95452
H          5.69339        2.89895        1.02858
H          4.98113        4.89461        2.16990
H          3.06978        4.12736        3.85145
H          4.63665        3.81509        4.59915
H          2.76955        1.90731        3.11293
H          2.39014        2.48895        6.02325
H          4.09318        2.47505        6.49184
H          3.05559        1.07952        6.91212
H          6.86853        1.16548        2.11895
H          7.76774        1.19558        4.43528
H          6.17366        1.64484        5.06053
H          7.81653        3.40372        4.43091
H          5.54061       -1.10006        2.69113
H          6.05363       -0.74514        4.31709
H          7.89429       -1.01931        1.84220
H          7.72170       -2.19088        3.16155
H          8.49241       -0.63203        3.46792
