75

N          1.75546        0.50958       -0.49163
C          3.18759        0.22382       -0.45266
C          3.47222       -0.84001        0.61518
C          4.95452       -1.21604        0.66400
N          5.24346       -2.21004        1.71164
C          5.10523       -3.58519        1.56344
C          5.39349       -4.15640        2.77319
N          5.69036       -3.10880        3.61909
C          5.59449       -1.92680        2.98505
C          5.82467       -0.58691        3.59604
C          6.23394       -0.66049        5.07523
C          6.54758        0.69717        5.73643
C          5.37051        1.70239        5.65519
C          5.46842        2.72452        4.50092
C          4.28530        3.64913        4.45235
C          3.24108        3.60308        3.60487
C          3.08923        2.58332        2.50368
C          2.11140        4.59386        3.70698
C          6.97565        0.44896        7.18982
C          5.45846       -5.56558        3.28728
O          5.51570       -5.42614        4.69616
C          5.64851       -6.55413        5.50105
C          5.63804       -7.84878        4.97825
C          5.76886       -8.96241        5.82141
C          5.74408      -10.36098        5.26129
C          5.90747       -8.73328        7.19522
C          5.91415       -7.43317        7.70029
C          5.78767       -6.30444        6.88107
C          5.82359       -4.91289        7.50197
C          7.09132       -4.12328        7.11789
C          4.53429       -4.09762        7.28179
H          1.50361        1.00490       -1.34604
H          1.47545        1.10452        0.28862
H          3.82740        1.11080       -0.26428
H          3.47975       -0.16745       -1.43989
H          2.86055       -1.72958        0.40333
H          3.15579       -0.46575        1.60238
H          5.58520       -0.33772        0.85887
H          5.28984       -1.64863       -0.28874
H          4.81999       -4.02932        0.61763
H          5.91713       -3.24763        4.60447
H          4.90476        0.00964        3.48255
H          6.60104       -0.06265        3.01241
H          7.12603       -1.30143        5.17368
H          5.42677       -1.14653        5.65221
H          7.40955        1.13739        5.20250
H          5.31395        2.26420        6.60008
H          4.41063        1.16120        5.58662
H          5.59721        2.20822        3.53752
H          6.38797        3.31651        4.64394
H          4.27000        4.42747        5.22283
H          3.97530        1.94752        2.37942
H          2.89350        3.07722        1.53808
H          2.22362        1.92884        2.70425
H          2.26469        5.30137        4.53098
H          1.14756        4.08391        3.86822
H          2.00553        5.17164        2.77444
H          6.14301        0.03949        7.78283
H          7.29359        1.38462        7.66803
H          7.81413       -0.26007        7.25325
H          6.35755       -6.07984        2.89985
H          4.57037       -6.13423        2.95979
H          5.52602       -8.01548        3.90616
H          5.77866      -10.36100        4.16451
H          4.82986      -10.89078        5.56778
H          6.59564      -10.95069        5.62818
H          6.01213       -9.57786        7.87793
H          6.02528       -7.27932        8.77598
H          5.89196       -5.08592        8.58834
H          7.17592       -3.96964        6.03049
H          7.99734       -4.66203        7.42513
H          7.09934       -3.13696        7.60411
H          4.37131       -3.84257        6.22501
H          4.57366       -3.16134        7.85692
H          3.65249       -4.66060        7.61520
