51

C          1.67408        1.06924       -0.93314
C          2.91207        0.42880       -0.35487
O          3.49525       -0.44864       -1.40551
C          4.47337       -1.27032       -1.00582
O          4.94479       -1.37278        0.09720
C          4.91111       -2.24185       -2.13730
N          4.61433       -1.67607       -3.49407
C          4.81078       -0.44285       -3.99436
N          4.43359       -0.41736       -5.29525
N          4.02485       -1.60861       -5.62934
N          4.12327       -2.39021       -4.56234
C          3.61625       -3.80704       -4.52870
O          3.31273       -4.30078       -3.49207
C          3.61916       -4.58503       -5.89794
C          2.16976       -5.03984       -6.35757
C          1.10564       -3.90183       -6.55893
C          1.26715       -3.07176       -7.87580
O          2.09663       -2.20451       -7.94346
O          0.44428       -3.40760       -8.87219
F         -0.12297       -4.48960       -6.51273
F          1.21184       -3.05444       -5.48169
F          2.32027       -5.71068       -7.52368
F          1.70714       -5.88656       -5.41061
F          4.24174       -3.91717       -6.88100
F          4.32352       -5.71287       -5.62534
C          5.45492        0.70485       -3.23203
O          6.35887        0.48927       -2.46713
C          4.85476        2.13632       -3.43064
C          5.79350        3.17621       -4.15882
C          6.14285        2.82298       -5.64867
C          4.99983        3.08447       -6.69088
O          4.80100        4.20183       -7.07763
O          4.30285        2.01138       -7.09233
F          7.22432        3.53172       -6.00346
F          6.50826        1.47107       -5.63000
F          5.17943        4.37457       -4.10003
F          6.94820        3.22931       -3.45094
F          3.66805        2.04528       -4.09795
F          4.61262        2.61399       -2.18497
C          6.36555       -2.69745       -2.04418
H          1.22914        1.72469       -0.17216
H          0.92338        0.31787       -1.20944
H          1.90383        1.68709       -1.81038
H          2.70259       -0.20710        0.51453
H          3.68572        1.15697       -0.07901
H          4.23666       -3.10147       -2.03937
H         -0.19651       -4.09198       -8.59598
H          4.59284        1.18898       -6.64345
H          7.06214       -1.86718       -2.19904
H          6.56873       -3.50004       -2.76419
H          6.51586       -3.09180       -1.03175
