43

C          0.99428        1.47666        0.56973
C          2.35763        1.65807       -0.10134
C          3.48779        1.91484        0.90393
C          4.84601        2.07988        0.21923
N          5.92932        2.26069        1.19059
C          6.83609        3.24770        1.15913
O          6.81387        4.13540        0.26993
C          7.92693        3.16936        2.22623
C          8.52243        4.46969        2.82292
O          7.62994        5.16757        3.68880
C          6.67760        5.97648        3.00731
C          7.32613        6.95861        2.03247
N          8.18084        6.21094        1.05188
C          9.19962        5.43425        1.83649
N          8.86500        7.09762        0.07525
C          9.40939        6.26590       -1.01468
C          7.93392        8.09272       -0.48205
H          0.21340        1.26871       -0.17322
H          0.69462        2.38017        1.12072
H          1.00466        0.63893        1.28228
H          2.30980        2.49557       -0.81682
H          2.59964        0.76213       -0.69679
H          3.53509        1.07455        1.61898
H          3.26793        2.81805        1.49716
H          4.86237        2.95674       -0.44021
H          5.07518        1.19734       -0.40028
H          6.00360        1.57491        1.93708
H          8.76016        2.60991        1.76616
H          7.58052        2.56130        3.07396
H          9.32954        4.12987        3.48983
H          6.15595        6.55209        3.78261
H          5.92359        5.36109        2.48602
H          7.97204        7.68150        2.55003
H          6.53791        7.48925        1.48865
H          7.56964        5.44227        0.57083
H          9.81857        6.16489        2.37152
H          9.82682        4.87434        1.13610
H         10.18407        5.58360       -0.64864
H          9.89643        6.94901       -1.71874
H          8.63550        5.68996       -1.55399
H          7.63358        8.82414        0.27473
H          7.04085        7.65097       -0.96391
H          8.49746        8.63877       -1.24669
