68

C         11.53508       -3.63559       -6.56838
C         10.98090       -2.96131       -5.31093
C         11.45780       -3.61454       -4.00871
C         10.93553       -2.92053       -2.74685
C         11.38860       -3.58674       -1.44332
C         10.93218       -2.83887       -0.18658
C         11.35151       -3.51632        1.12242
C         10.96132       -2.71594        2.36882
C         11.35860       -3.38786        3.68845
C         11.04585       -2.51496        4.91095
C         11.29501       -3.17412        6.27532
C         12.76493       -3.55879        6.48653
N         13.04080       -3.99922        7.85902
N         13.49651       -3.10310        8.79233
C         13.60110       -3.78014        9.90973
N         13.19711       -5.10252        9.71956
C         12.83747       -5.20414        8.40842
N         12.29577       -6.29241        7.81272
C         13.10535       -6.16042       10.73813
C         14.03739       -7.37939       10.51296
C         15.39327       -7.08826        9.97356
C         16.56729       -7.17744       10.61322
F         16.65744       -7.46132       11.90534
F         17.73760       -7.00922       10.04588
F         15.42501       -6.78193        8.63760
C         14.09511       -3.19059       11.18306
C         15.49800       -3.67607       11.63252
C         16.58196       -3.48296       10.56965
O         17.80822       -4.05813       10.98026
O         15.86199       -3.05529       12.86203
H         11.17228       -3.14495       -7.48188
H         11.23709       -4.69353       -6.61957
H         12.63466       -3.60195       -6.58804
H          9.87817       -2.97415       -5.33969
H         11.26889       -1.89623       -5.30735
H         12.56212       -3.62299       -3.98886
H         11.14911       -4.67505       -3.99942
H          9.83212       -2.88933       -2.77521
H         11.26583       -1.86669       -2.75018
H         12.49015       -3.66651       -1.43772
H         11.01096       -4.62399       -1.41236
H          9.83375       -2.72873       -0.20328
H         11.33741       -1.81202       -0.20969
H         12.44501       -3.67229        1.11822
H         10.90192       -4.52372        1.17380
H          9.87215       -2.53790        2.36842
H         11.42959       -1.71758        2.31840
H         12.43673       -3.62526        3.65065
H         10.83275       -4.35578        3.77990
H          9.98805       -2.21110        4.87652
H         11.62740       -1.57921        4.85280
H         10.65529       -4.06695        6.38310
H         11.00602       -2.47977        7.07895
H         13.42812       -2.69960        6.32373
H         13.09495       -4.35919        5.80713
H         12.63434       -7.20604        8.09720
H         12.09688       -6.22059        6.81987
H         12.05839       -6.49381       10.79239
H         13.34581       -5.67914       11.69159
H         13.55661       -8.11074        9.84058
H         14.13214       -7.89470       11.47839
H         13.38404       -3.37621       12.00249
H         14.11704       -2.10315       11.01891
H         15.46174       -4.74850       11.88096
H         16.68697       -2.40240       10.33729
H         16.30332       -3.98980        9.63278
H         18.02050       -3.70680       11.86242
H         15.93423       -2.09413       12.72544
