36

F          1.56570       -1.05579        0.23319
C          2.89392       -0.62979        0.14573
C          2.98734        0.81458        0.62098
C          4.42998        1.34803        0.48884
C          4.55653        2.76136        0.98899
N          5.13175        2.83589        2.17890
N          5.22706        4.02572        2.77101
C          4.81800        5.18892        2.23478
C          4.21347        5.20937        0.99261
C          4.01667        3.94784        0.33440
N          3.29831        3.88341       -0.82480
N          3.60589        2.93357       -1.79323
N          2.19515        4.69379       -1.10112
C          3.91239        6.52970        0.38443
C          4.49810        6.88562       -0.84565
C          4.25708        8.14369       -1.39928
C          3.42703        9.05497       -0.73791
C          2.84561        8.70894        0.48466
C          3.08976        7.45462        1.04831
H          3.20998       -0.73247       -0.90547
H          3.50408       -1.30324        0.76903
H          2.66345        0.87147        1.67122
H          2.28157        1.41843        0.03094
H          4.75526        1.28405       -0.55643
H          5.10358        0.74017        1.10718
H          5.67174        3.99547        3.68726
H          5.03572        6.09521        2.79867
H          4.20886        3.34799       -2.51037
H          2.73257        2.62356       -2.22553
H          2.46363        5.56131       -1.58042
H          1.69649        4.92017       -0.23958
H          5.17178        6.18898       -1.34933
H          4.72885        8.41745       -2.34338
H          3.23783       10.03601       -1.17376
H          2.19845        9.41642        1.00318
H          2.62566        7.18560        1.99914
