56

C          1.92893        0.41652        2.93389
C          3.37837        0.35838        2.44537
C          3.50382        0.36678        0.91764
C          4.95210        0.30334        0.42129
C          5.07369        0.32825       -1.10566
C          6.51846        0.24129       -1.60715
C          6.62360        0.29078       -3.13622
C          8.07447        0.15098       -3.61899
C          8.39593        0.37898       -5.10076
O          8.03772       -0.68613       -5.99417
C          6.65883       -0.84777       -6.21797
N          6.01632        0.44630       -6.45115
C          6.69550        1.60528       -6.35430
N          6.20372        2.71513       -6.91981
C          6.78615        4.04301       -6.76494
N          7.83724        1.62902       -5.64730
C          6.58585       -1.85477       -7.41083
O          6.39980       -3.02047       -7.18758
C          6.84719       -1.39356       -8.89148
C          5.66620       -1.70280       -9.89166
C          4.25418       -1.10418       -9.53346
C          4.13364        0.44722       -9.66132
O          4.36713        1.16739       -8.71159
O          3.76324        0.91776      -10.84148
F          3.34856       -1.68120      -10.37444
F          3.94327       -1.44975       -8.25158
F          6.01298       -1.19800      -11.11191
F          5.52691       -3.03792       -9.99328
F          7.12013       -0.05229       -8.97131
F          7.93051       -2.06749       -9.34387
H          1.87466        0.41224        4.03086
H          1.34938       -0.44521        2.57039
H          1.42346        1.32761        2.58019
H          3.86623       -0.54729        2.84340
H          3.94241        1.21136        2.85916
H          3.01920        1.27526        0.51745
H          2.93759       -0.48500        0.50070
H          5.43212       -0.61140        0.81061
H          5.52237        1.14773        0.84634
H          4.60638        1.25105       -1.49340
H          4.49076       -0.50775       -1.53115
H          6.97966       -0.69089       -1.23887
H          7.11208        1.06543       -1.17504
H          6.19630        1.24300       -3.49271
H          5.99155       -0.50959       -3.55160
H          8.47701       -0.84206       -3.36454
H          8.69791        0.87600       -3.06776
H          9.48550        0.44506       -5.22049
H          6.15612       -1.36641       -5.38381
H          5.15992        0.47511       -7.01107
H          5.44416        2.58593       -7.58631
H          7.73817        4.14475       -7.30912
H          6.93559        4.28217       -5.70289
H          6.08258        4.77300       -7.17667
H          8.45705        2.42290       -5.76335
H          3.55369        0.19432      -11.46720
