93

C          0.95440        0.55356       -0.78115
C          2.42346        0.62885       -0.42947
O          3.06610       -0.59901       -0.91468
C          4.40772       -0.63455       -0.77069
O          5.07181        0.23815       -0.25597
C          4.98430       -1.98105       -1.24669
C          4.45152       -2.53964       -2.56004
C          4.41771       -1.78633       -3.74370
C          4.77104       -0.31632       -3.74406
C          3.55303        0.60465       -3.93536
O          3.90982        1.88703       -3.45457
C          2.94004        2.87535       -3.79474
C          3.44354        4.21567       -3.27968
O          2.48562        5.17312       -3.71798
C          2.71663        6.50075       -3.45798
C          1.78275        7.39474       -4.00526
C          1.93429        8.75889       -3.80791
C          3.00946        9.29299       -3.06731
C          3.91302        8.37562       -2.51584
C          3.78520        6.99494       -2.70387
C          3.13930       10.81166       -2.88135
C          3.15847       11.55796       -4.25667
C          4.32867       11.46871       -5.28494
C          5.55604       12.29786       -4.85149
C          4.77377       10.02555       -5.58732
C          3.78439       12.09116       -6.59017
C          1.86597       11.30411       -2.14134
C          4.34131       11.18822       -1.99794
C          4.04917       -2.40994       -4.98508
C          3.99759       -1.65348       -6.29275
C          2.53695       -1.44434       -6.73899
C          2.27036       -0.77351       -8.08910
C          2.39454        0.78936       -8.14178
Br         4.21333        1.49438       -7.88873
F          1.92822        1.24943       -9.31217
F          1.61028        1.29999       -7.15270
Br         3.32458       -1.57360       -9.54118
F          0.93776       -1.00482       -8.37702
C          3.72172       -3.75801       -5.02774
C          3.71669       -4.54245       -3.87037
C          4.08895       -3.93085       -2.61499
C          4.09381       -4.77018       -1.49032
N          3.75339       -6.06850       -1.58739
C          3.38701       -6.67247       -2.76342
C          3.36775       -5.92259       -3.90371
C          6.52402       -1.97089       -1.23199
H          0.44853        1.45869       -0.41906
H          0.47153       -0.31394       -0.31280
H          0.80034        0.49448       -1.86689
H          2.58984        0.69225        0.65492
H          2.93132        1.48100       -0.90096
H          4.65532       -2.64488       -0.43248
H          5.51046       -0.10495       -4.53107
H          5.25251       -0.01992       -2.80718
H          2.68051        0.20329       -3.38605
H          3.27152        0.67565       -4.99947
H          1.95877        2.63763       -3.34095
H          2.80362        2.92455       -4.89050
H          4.44138        4.43132       -3.69936
H          3.52401        4.20448       -2.17833
H          0.95067        6.99647       -4.58632
H          1.19544        9.42602       -4.25352
H          4.75840        8.73024       -1.92781
H          4.52209        6.32676       -2.25983
H          3.01651       12.62899       -4.03109
H          2.24241       11.25488       -4.78914
H          6.08623       11.85609       -3.99927
H          5.26770       13.32263       -4.57393
H          6.27579       12.36860       -5.68030
H          5.23512        9.54166       -4.71658
H          5.51748       10.02723       -6.39835
H          3.93092        9.39660       -5.90714
H          3.44619       13.12594       -6.43018
H          2.93181       11.51553       -6.98010
H          4.56226       12.11058       -7.36738
H          0.95683       11.14250       -2.73615
H          1.93997       12.38053       -1.92958
H          1.74362       10.77273       -1.18725
H          5.29484       10.80371       -2.37991
H          4.21115       10.80771       -0.97444
H          4.42906       12.28106       -1.93334
H          4.51595       -2.24338       -7.06308
H          4.52132       -0.69635       -6.22614
H          1.97850       -0.86913       -5.98493
H          2.03485       -2.41913       -6.81713
H          3.46806       -4.22512       -5.98154
H          4.36514       -4.44055       -0.49105
H          3.77017       -6.63260       -0.73989
H          3.13422       -7.72830       -2.70960
H          3.08321       -6.38836       -4.84639
H          6.93169       -1.31371       -2.01002
H          6.91232       -2.98301       -1.40514
H          6.88813       -1.60735       -0.26437
