55

C          2.64574        2.82125        1.47466
C          3.23840        1.96148        0.86540
C          3.95022        0.90267        0.16505
C          4.63860       -0.07310        1.14100
C          5.29647       -1.24393        0.40312
N          5.80539       -2.28058        1.30302
C          7.10471       -2.14042        1.99024
C          7.51413       -3.60076        2.32324
N          6.25721       -4.32853        2.03105
C          5.33689       -3.52985        1.44778
N          4.14814       -3.99749        1.04098
C          2.85624       -3.29171        0.95222
C          1.88194       -3.96031        1.90088
C          0.58955       -4.48447        1.43150
O          1.71193       -5.36641        1.64389
C          8.70006       -4.09925        1.49827
C          9.06446       -5.56214        1.73996
O         10.30172       -5.77415        1.08420
C         10.67790       -7.12530        0.93485
C         11.69506       -7.23434       -0.20488
C         11.15631       -7.15481       -1.68082
C         10.43871       -5.86848       -2.23543
C         11.26738       -4.54733       -2.26059
F         10.60672       -3.65801       -3.05841
F         11.33918       -4.01067       -1.01104
F         10.12484       -6.16080       -3.52841
F          9.26426       -5.66945       -1.56304
F         12.22053       -7.37363       -2.50483
F         10.26844       -8.18109       -1.83476
F         12.68539       -6.30458       -0.06392
F         12.27006       -8.47422       -0.10722
H          2.11801        3.59171        1.99739
H          4.69557        1.34443       -0.51770
H          3.24023        0.34986       -0.47539
H          3.89314       -0.45341        1.85690
H          5.38514        0.47081        1.73813
H          6.14629       -0.89111       -0.20315
H          4.59521       -1.71751       -0.29730
H          7.00004       -1.51199        2.88658
H          7.82578       -1.66360        1.31211
H          7.72975       -3.70120        3.39703
H          5.98802       -5.16627        2.53424
H          4.04331       -5.01136        1.04895
H          2.48870       -3.34749       -0.08248
H          2.98448       -2.23878        1.22380
H          1.99836       -3.70789        2.96141
H          0.29818       -4.34771        0.38614
H         -0.22786       -4.60139        2.14703
H          9.57703       -3.48424        1.75467
H          8.50508       -3.94735        0.42555
H          8.29103       -6.23792        1.32482
H          9.15413       -5.77605        2.82536
H          9.81675       -7.77412        0.69538
H         11.17472       -7.52061        1.83951
H         12.28245       -4.70690       -2.65543
