49

C          1.78272       -0.13237        1.01655
C          3.09833        0.04306        1.16125
C          3.84574        1.33483        0.95458
C          3.05643        2.64017        0.75911
C          3.12508        2.95753       -0.74718
C          4.57108        2.53021       -1.12402
N          4.65738        1.20305       -0.38014
C          5.72540        3.41863       -0.65531
C          5.97059        4.68170       -1.48614
O          7.30791        5.05345       -1.19752
C          7.65550        6.36632       -1.57899
C          8.95953        6.75169       -0.87523
C          8.88705        7.14618        0.64606
C          8.41677        6.12451        1.74823
C          9.27272        4.83376        1.93032
F          8.91430        4.25862        3.11435
F          8.99712        3.93935        0.93688
F          8.48388        6.80784        2.92363
F          7.10787        5.78810        1.54006
F         10.13996        7.54045        1.01306
F          8.04759        8.21781        0.73843
F          9.89492        5.76507       -1.01370
F          9.43564        7.86929       -1.50725
N          2.82279        4.33060       -1.10572
C          2.68830        4.48362       -2.55900
C          1.63201        4.86325       -0.43306
H          1.33390       -1.11236        1.17636
H          1.09812        0.67587        0.75483
H          3.72265       -0.80883        1.45035
H          4.60743        1.44664        1.73787
H          3.52131        3.44849        1.33845
H          2.02671        2.53418        1.11213
H          2.43530        2.24675       -1.27044
H          4.67579        2.29679       -2.19322
H          5.63518        0.93995       -0.20504
H          4.22709        0.44894       -0.93183
H          6.65972        2.83418       -0.72298
H          5.60947        3.70678        0.39926
H          5.26104        5.47870       -1.20969
H          5.85246        4.47643       -2.56923
H          6.87627        7.09934       -1.30537
H          7.84933        6.44583       -2.66436
H         10.35121        5.05247        1.94163
H          3.60195        4.16610       -3.07752
H          2.52740        5.54213       -2.79603
H          1.83811        3.90264       -2.97275
H          1.77195        4.88693        0.65366
H          0.70964        4.29080       -0.66477
H          1.47891        5.89623       -0.76697
