48

C          5.91303        0.26238       -4.08847
C          5.95614       -0.50910       -2.76544
C          6.88831        0.15737       -1.76245
O          6.85422       -0.54097       -0.47232
C          7.73252       -1.54607       -0.31243
O          8.55498       -1.91665       -1.12297
C          7.57331       -2.18641        1.07597
C          7.68478       -3.68395        0.98436
C          8.85527       -4.29137        1.34504
N          8.97673       -5.63970        1.25043
C          8.04922       -6.48564        0.78336
C          6.80726       -5.94490        0.31346
C          6.63073       -4.50232        0.45582
C          5.42107       -3.88829        0.05674
C          4.39156       -4.63694       -0.46600
C          4.54626       -6.02179       -0.64166
C          5.71704       -6.67380       -0.28480
I          5.65088       -8.72452       -0.83006
C          8.42220       -7.94854        0.92772
C          9.92826       -8.22970        0.93765
O         10.78937       -7.45854        1.36544
O         10.17330       -9.44850        0.48185
C         11.57378       -9.92540        0.51359
C         12.29014       -9.57582       -0.77451
C          7.81900       -8.51413        2.24664
H          5.23051       -0.22194       -4.79787
H          6.90489        0.30779       -4.55937
H          5.56225        1.29395       -3.94273
H          6.29767       -1.54063       -2.94247
H          4.94685       -0.56838       -2.32824
H          6.56297        1.17685       -1.51963
H          7.92605        0.17539       -2.12094
H          6.63412       -1.86358        1.54113
H          8.38985       -1.79520        1.70025
H          9.72701       -3.75754        1.71803
H          9.88649       -6.11934        1.50034
H          5.30443       -2.81161        0.16031
H          3.45542       -4.16312       -0.76218
H          3.73068       -6.59284       -1.08277
H          8.00479       -8.51875        0.09116
H         11.46298      -11.00746        0.64642
H         12.06023       -9.48967        1.39456
H         11.76213       -9.98332       -1.64603
H         13.29622      -10.01652       -0.75179
H         12.40090       -8.49063       -0.89351
H          8.25004       -8.00856        3.12074
H          8.02734       -9.58829        2.31674
H          6.73166       -8.37286        2.25863
