45

C          6.00801       -2.98520       -2.26969
O          5.20257       -3.65984       -1.27465
C          5.47053       -3.33907        0.01828
S          4.58453       -1.70817        0.53702
C          2.85900       -2.28003        0.65442
C          1.93163       -1.07509        0.87112
C          0.44046       -1.41221        0.74003
C         -0.11593       -2.49903        1.72234
Br         0.32229       -2.11682        3.60047
F         -1.43981       -2.63015        1.59164
F          0.44871       -3.69785        1.39674
Br        -0.58170        0.24121        0.95976
F          0.20789       -1.90580       -0.52720
C          5.15296       -1.64971        2.38577
O          6.44998       -1.26335        2.45145
C          6.69393        0.18804        2.46916
C          6.33169        0.83579        3.79571
C          7.10153        0.28216        5.00022
C          6.75266        0.99287        6.31188
C          7.52280        0.44868        7.52078
C          7.16570        1.15567        8.83046
H          5.73387       -3.43280       -3.22902
H          7.07699       -3.14806       -2.06866
H          5.78547       -1.90726       -2.28747
H          6.52708       -3.11853        0.24775
H          5.05733       -4.10955        0.68352
H          2.79999       -3.02508        1.45936
H          2.66149       -2.78087       -0.30452
H          2.12977       -0.30876        0.10894
H          2.09312       -0.61802        1.85517
H          5.03981       -2.68166        2.74719
H          4.41876       -0.97794        2.85861
H          6.14979        0.64355        1.62396
H          7.76979        0.26107        2.26706
H          5.24299        0.77287        3.97385
H          6.53667        1.91347        3.67714
H          8.18465        0.37195        4.80787
H          6.90275       -0.79761        5.10421
H          5.66776        0.90483        6.50045
H          6.95313        2.07337        6.20705
H          8.60515        0.54393        7.33176
H          7.32744       -0.63269        7.61859
H          7.38056        2.23276        8.77517
H          7.73760        0.74681        9.67387
H          6.09753        1.04310        9.06829
