100

C          0.67449        0.59089       -0.52141
C          2.20520        0.57175       -0.52581
C          2.82742        1.56914        0.45780
C          4.35921        1.55649        0.46219
C          4.98091        2.56471        1.43385
C          6.51284        2.54602        1.44090
C          7.13694        3.57041        2.39391
C          8.66788        3.52482        2.42628
C          9.29532        4.54904        3.37755
C         10.81796        4.42434        3.48956
C         11.45059        5.42773        4.45969
C         12.95053        5.19888        4.67594
C         13.57906        6.18032        5.67084
C         15.03793        5.84976        6.00765
C         15.64390        6.82049        7.03332
C         17.03877        6.38375        7.46421
N         17.63490        7.31983        8.50784
C         17.02652        7.15177        9.89206
C         16.96911        8.47023       10.66805
C         16.33882        8.24495       12.02689
C         17.12903        7.86669       13.12140
C         16.54349        7.62133       14.36486
C         15.16147        7.75122       14.52553
C         14.36697        8.12995       13.44039
C         14.95337        8.37452       12.19682
C         19.14221        7.24116        8.54623
O         19.57033        7.84588        7.37611
C         21.01837        7.96274        7.27670
C         21.35730        8.65259        5.96887
C         22.86907        8.86300        5.80360
C         23.23982        9.50144        4.45958
C         24.74611        9.72600        4.28827
C         25.12517       10.30408        2.92039
C         26.63120       10.52041        2.73963
C         27.01079       11.06709        1.35837
C         28.51590       11.28108        1.18046
H          0.25980       -0.13201       -1.23767
H          0.28647        1.58456       -0.79114
H          0.27433        0.33972        0.47231
H          2.57423        0.78825       -1.54282
H          2.56254       -0.44440       -0.28668
H          2.45686        1.35491        1.47610
H          2.47105        2.58658        0.21703
H          4.72822        1.76031       -0.55859
H          4.71471        0.54119        0.71262
H          4.60927        2.36538        2.45461
H          4.62925        3.58023        1.17932
H          6.88476        2.72670        0.41695
H          6.86302        1.53448        1.71318
H          6.74821        3.40297        3.41410
H          6.80509        4.58435        2.10870
H          9.06189        3.68228        1.40685
H          8.99294        2.51100        2.72039
H          8.85010        4.43112        4.38151
H          9.02943        5.56897        3.04858
H         11.27305        4.54296        2.49067
H         11.07054        3.39953        3.81490
H         10.93394        5.36457        5.43375
H         11.27999        6.45516        4.09353
H         13.48006        5.26271        3.70979
H         13.10575        4.16743        5.03838
H         12.98742        6.17746        6.60335
H         13.51326        7.20721        5.27177
H         15.64725        5.85704        5.08831
H         15.09156        4.82152        6.40487
H         14.96967        6.88041        7.90349
H         15.69450        7.83396        6.59896
H         17.73718        6.39373        6.61756
H         17.04002        5.38160        7.91571
H         17.43151        8.28002        8.18657
H         17.62382        6.39172       10.41399
H         16.01694        6.74850        9.75269
H         16.37505        9.20225       10.09628
H         17.97880        8.89261       10.79058
H         18.21215        7.77590       13.00690
H         17.16870        7.33632       15.21141
H         14.70547        7.56565       15.49825
H         13.28973        8.24482       13.56372
H         14.32831        8.68503       11.35573
H         19.41166        6.17018        8.62358
H         19.48205        7.77320        9.45386
H         21.46070        6.95153        7.32363
H         21.38445        8.54178        8.14411
H         20.83597        9.62241        5.93139
H         20.96814        8.04753        5.13442
H         23.39013        7.89469        5.89983
H         23.24527        9.49540        6.62608
H         22.71023       10.46410        4.35279
H         22.87088        8.86014        3.64024
H         25.27609        8.76877        4.43736
H         25.10881       10.39895        5.08498
H         24.59753       11.26217        2.76869
H         24.75723        9.62915        2.12751
H         27.16033        9.56609        2.91034
H         26.99869       11.21120        3.51904
H         26.48028       12.01909        1.18695
H         26.64332       10.37405        0.58252
H         28.90713       12.00186        1.91388
H         28.75137       11.66721        0.17950
H         29.07284       10.34164        1.31288
