74

C          2.69874        4.14810       -6.62111
C          4.21819        4.00858       -6.73989
C          4.74986        2.68373       -6.18169
C          6.26800        2.52793       -6.31304
C          6.80091        1.20977       -5.74327
C          8.31400        1.04215       -5.92158
C          8.84669       -0.27736       -5.34538
C         10.33235       -0.43316       -5.62969
O         10.89550       -1.65100       -5.01830
C         10.74686       -2.79078       -5.71079
O         10.18845       -2.91674       -6.78059
C         11.43571       -3.95075       -4.97859
C         12.90277       -4.06933       -5.42145
C         13.04080       -4.12278       -6.95345
O         14.38661       -4.23765       -7.38293
C         14.96797       -5.43919       -6.90432
C         14.98950       -5.45740       -5.38187
N         13.57005       -5.33769       -4.84902
C         13.49278       -5.45984       -3.33702
C         13.84242       -6.85400       -2.80382
O         15.26093       -6.94065       -2.81998
C         15.81174       -8.27072       -2.61199
C         17.29770       -8.19084       -2.81100
C         18.15063       -8.03768       -1.70937
C         19.53035       -7.92615       -1.89354
C         20.06701       -7.96062       -3.18373
C         19.22294       -8.11246       -4.28856
C         17.84522       -8.23180       -4.10165
C         13.23489       -7.03738       -1.40864
C         16.39903       -5.64252       -7.46730
O         17.06624       -6.53974       -6.98956
C         16.84296       -4.75137       -8.58821
H          2.34962        5.10729       -7.02702
H          2.37290        4.09428       -5.57159
H          2.17979        3.34737       -7.16897
H          4.70774        4.84588       -6.21383
H          4.51672        4.10207       -7.79803
H          4.25144        1.84550       -6.70047
H          4.46152        2.59399       -5.11930
H          6.76743        3.37253       -5.80640
H          6.55085        2.60570       -7.37769
H          6.28386        0.36451       -6.22995
H          6.54755        1.14351       -4.67082
H          8.83621        1.89040       -5.44587
H          8.55841        1.09707       -6.99670
H          8.29932       -1.12242       -5.79015
H          8.67715       -0.31169       -4.25735
H         10.92202        0.37243       -5.17452
H         10.53266       -0.47353       -6.70925
H         10.87775       -4.86383       -5.23435
H         11.36123       -3.76816       -3.90074
H         13.49817       -3.23352       -5.02480
H         12.64882       -3.19459       -7.38326
H         12.42879       -4.95500       -7.35817
H         14.38363       -6.31108       -7.27766
H         15.54728       -4.59983       -4.98203
H         15.42944       -6.37385       -4.97875
H         13.04145       -6.13856       -5.23137
H         12.46588       -5.20943       -3.05641
H         14.17548       -4.71101       -2.91393
H         13.40940       -7.62489       -3.48309
H         15.34503       -8.96450       -3.33602
H         15.57569       -8.62027       -1.59426
H         17.73181       -8.01068       -0.70117
H         20.18664       -7.81597       -1.02988
H         21.14474       -7.87764       -3.32878
H         19.63712       -8.14429       -5.29659
H         17.19591       -8.35630       -4.97014
H         13.61398       -6.27234       -0.71700
H         13.49320       -8.02197       -1.00199
H         12.13830       -6.97590       -1.44352
H         16.78515       -3.69459       -8.28909
H         16.16130       -4.85752       -9.44640
H         17.86364       -5.01360       -8.88210
