66

C          1.13845       -0.47785       -1.02548
C          2.61510       -0.18455       -0.74978
C          3.02791       -0.45391        0.70133
C          4.50716       -0.17357        0.98340
C          4.92288       -0.46464        2.42878
C          6.40662       -0.20271        2.70649
C          6.83124       -0.55017        4.13691
C          8.31832       -0.30309        4.41241
C          8.75771       -0.74922        5.81087
C         10.24465       -0.50020        6.08978
C         10.68978       -1.03660        7.45534
C         12.17193       -0.75551        7.72226
N         12.65341       -1.38345        8.97736
C         12.23948       -0.94708       10.16117
N         12.28270       -1.73500       11.28459
C         11.80505       -3.07181       11.34678
O         11.33214       -3.66374       10.40393
O         11.97713       -3.49776       12.60187
C         11.45438       -4.84291       12.90911
C         10.00574       -4.77279       13.34779
N         11.76109        0.29932       10.32557
C         13.62442       -2.49288        8.84618
C         14.95824       -2.02989        8.24496
C         15.59781       -0.82685        8.97454
C         15.68817       -0.99033       10.42074
C         15.74915       -1.14197       11.62056
H          0.87571       -0.27552       -2.07277
H          0.48301        0.14016       -0.39373
H          0.89517       -1.53112       -0.82013
H          2.83557        0.86707       -1.00032
H          3.24355       -0.79203       -1.42316
H          2.80191       -1.50528        0.95367
H          2.40376        0.15731        1.37719
H          4.73205        0.88052        0.74279
H          5.12873       -0.77731        0.29864
H          4.68961       -1.51737        2.66787
H          4.30863        0.14282        3.11662
H          6.63686        0.85751        2.50128
H          7.01784       -0.78656        1.99601
H          6.59763       -1.61124        4.33481
H          6.22406        0.03064        4.85323
H          8.54460        0.76917        4.27790
H          8.92169       -0.83664        3.65720
H          8.54101       -1.82447        5.93324
H          8.15092       -0.22904        6.57255
H         10.45336        0.58226        6.02657
H         10.84941       -0.97345        5.29704
H         10.52765       -2.12443        7.50989
H         10.06918       -0.59209        8.24997
H         12.39463        0.32467        7.71940
H         12.78358       -1.17956        6.91727
H         12.53144       -1.29557       12.16762
H         12.11552       -5.18913       13.71158
H         11.59195       -5.46960       12.01943
H          9.88337       -4.11013       14.21414
H          9.67203       -5.77751       13.64155
H          9.35494       -4.42914       12.53343
H         11.86979        1.00743        9.61008
H         11.17926        0.52031       11.12411
H         13.16217       -3.28521        8.24206
H         13.80929       -2.89858        9.84401
H         14.85839       -1.78156        7.17859
H         15.63347       -2.89658        8.29631
H         15.03485        0.09528        8.75090
H         16.60679       -0.66037        8.56620
H         15.86911       -1.27073       12.67656
