43

O          1.17573       -0.42265       -0.78485
N          1.95406       -0.36951        0.40642
C          3.23910       -1.06464        0.07252
C          4.06870       -1.02019        1.35232
N          3.26967       -1.73624        2.42187
C          3.04648       -3.22969        2.15319
C          2.36086       -3.34342        0.78148
C          2.98847       -2.52379       -0.36982
C          4.22406       -3.18209       -1.01414
C          4.47288       -2.77612       -2.50678
N          5.00330       -1.39545       -2.51672
N          5.32852       -3.82412       -3.07366
N          3.21879       -2.77312       -3.25034
C          4.34448       -4.01939        2.33388
C          4.88795       -4.01346        3.76892
C          6.20693       -4.76789        3.88330
F          6.08047       -6.05696        3.48298
F          7.16692       -4.19251        3.10410
F          6.65806       -4.76703        5.15554
O          2.37255        1.00976        0.57981
H          0.25686       -0.41335       -0.46260
H          3.76150       -0.52204       -0.73298
H          4.23228        0.00482        1.70086
H          5.03194       -1.52749        1.23733
H          2.34180       -1.27361        2.40489
H          3.68855       -1.59616        3.34862
H          2.33624       -3.54019        2.93636
H          1.31480       -3.02339        0.90649
H          2.32194       -4.40720        0.50894
H          2.24397       -2.49356       -1.17897
H          4.06414       -4.26957       -1.02142
H          5.15508       -3.00580       -0.44728
H          5.92429       -1.37984       -2.07261
H          5.15143       -1.09406       -3.48364
H          6.15243       -3.99405       -2.49388
H          5.65972       -3.54897       -4.00087
H          3.01633       -1.87949       -3.69119
H          3.19111       -3.52867       -3.93029
H          5.11926       -3.67646        1.63501
H          4.11839       -5.05523        2.04313
H          4.18031       -4.48476        4.46659
H          5.10168       -2.99950        4.14512
H          1.62363        1.41944        1.04901
