91

C          7.86316       -1.28198      -13.89355
C          7.51981       -0.09778      -12.98675
C          8.51457        0.09611      -11.83700
C          8.17653        1.27717      -10.92194
C          9.16760        1.46143       -9.76812
C          8.83534        2.64520       -8.85392
C          9.80745        2.80459       -7.67978
C          9.45910        3.97562       -6.75591
C         10.41217        4.13038       -5.56450
C         10.03370        5.30965       -4.66165
C         10.90791        5.51104       -3.41313
C         12.40508        5.74915       -3.65897
S         12.71034        6.98299       -4.98078
C         11.91983        8.55532       -4.19075
O         12.32958        9.70228       -4.79973
C         11.75708       10.09063       -6.03207
C         10.91931        9.23729       -6.75163
C         10.38530        9.63206       -7.98630
C          9.46411        8.71874       -8.75245
C         10.72661       10.90235       -8.46380
C         11.56218       11.74053       -7.72638
C         12.10851       11.37245       -6.48836
C         13.00175       12.35483       -5.74103
C         12.44977       12.75917       -4.36116
C         14.47008       11.89644       -5.65823
C         14.49029        7.36692       -4.81046
C         15.00668        8.06316       -6.07047
C         16.45191        8.54839       -5.88919
N         16.86419        9.28316       -7.07135
C         18.25134        9.75044       -7.02149
C         18.59729       10.63325       -8.19967
C         17.78966       10.73634       -9.33817
C         18.12509       11.58352      -10.39847
C         19.29341       12.34345      -10.33225
C         20.12239       12.24889       -9.21345
C         19.77935       11.39885       -8.15817
O         20.56839       11.26620       -7.04065
H          7.13749       -1.38696      -14.71157
H          7.86880       -2.22786      -13.33176
H          8.85863       -1.16280      -14.34699
H          6.50723       -0.23375      -12.57047
H          7.47620        0.82658      -13.58761
H          9.52855        0.23441      -12.25272
H          8.56066       -0.82946      -11.23614
H          7.16075        1.14072      -10.51088
H          8.13613        2.20372      -11.52167
H         10.18524        1.58967      -10.17745
H          9.19993        0.53620       -9.16630
H          7.80991        2.52645       -8.46226
H          8.82429        3.57551       -9.44931
H         10.83319        2.93463       -8.06797
H          9.82320        1.87023       -7.09212
H          8.42921        3.85040       -6.37954
H          9.45382        4.91366       -7.34037
H         11.44173        4.24648       -5.94816
H         10.41323        3.20157       -4.96836
H          8.99556        5.18367       -4.31758
H         10.01976        6.23643       -5.26648
H         10.85177        4.61535       -2.77365
H         10.50314        6.33370       -2.80481
H         12.90840        4.84890       -4.03970
H         12.92755        6.08685       -2.75284
H         12.28506        8.55948       -3.15552
H         10.83871        8.35822       -4.24841
H         10.66561        8.24425       -6.37955
H          9.56948        7.67335       -8.43285
H          9.66184        8.76687       -9.83117
H          8.41251        9.00704       -8.60263
H         10.33552       11.24224       -9.42384
H         11.80795       12.72836       -8.12057
H         12.99578       13.26442       -6.36271
H         12.50484       11.93385       -3.63886
H         11.40263       13.08255       -4.43109
H         13.03443       13.59626       -3.95573
H         14.58689       11.01313       -5.01541
H         15.09414       12.69624       -5.23724
H         14.86290       11.66207       -6.65757
H         14.97640        6.39329       -4.64779
H         14.61504        7.97650       -3.90304
H         14.36996        8.92783       -6.30732
H         14.95441        7.38220       -6.93164
H         17.12638        7.68480       -5.76287
H         16.52771        9.14258       -4.94858
H         16.25278       10.09351       -7.19395
H         18.91082        8.86397       -7.01052
H         18.48027       10.30272       -6.08676
H         16.88852       10.12493       -9.39725
H         17.47761       11.64556      -11.27286
H         19.56836       13.00889      -11.15094
H         21.04330       12.83510       -9.15642
H         21.34750       11.83719       -7.13842
