86

C         17.01285        1.62751       10.47834
O         17.03700        2.38883        9.27809
C         15.74338        2.77851        8.85879
C         15.91044        3.61517        7.59819
O         14.60614        4.00829        7.17115
C         14.61774        4.85536        6.04321
C         13.16961        5.25358        5.79641
O         13.13341        6.10777        4.64489
C         11.82542        6.50859        4.29553
C         11.92335        7.24332        2.96823
S         12.93090        6.23421        1.80659
C         12.14226        4.63327        1.83259
C         10.81037        4.41957        1.45463
C         10.28663        3.13037        1.54855
C         11.08196        2.07930        2.02081
C         12.40641        2.30829        2.40257
C         12.94787        3.59240        2.31084
C         12.46599        6.92556        0.17074
C         12.82610        8.40372        0.09495
O         14.15786        8.53585        0.55093
C         14.63845        9.89305        0.59546
C         14.44767       10.49445        1.98797
O         14.79842       11.85973        1.87235
C         14.67180       12.66662        2.98830
C         14.41783       12.19867        4.28165
C         14.30471       13.11417        5.33104
C         14.43437       14.49766        5.13759
C         14.69120       14.93181        3.82632
C         14.81439       14.03859        2.76478
C         14.29366       15.46802        6.31966
C         15.40918       15.24976        7.39621
C         16.94151       15.35910        7.13102
C         17.38100       16.74860        6.62846
C         17.60903       15.11788        8.50389
C         17.46225       14.28575        6.15406
C         14.21832       16.93716        5.85900
C         12.94787       15.17434        7.03387
H         18.05317        1.38268       10.72170
H         16.44015        0.69048       10.35218
H         16.57152        2.20301       11.31248
H         15.23225        3.37637        9.63913
H         15.10839        1.89565        8.64457
H         16.41797        3.02426        6.81259
H         16.53286        4.50333        7.81366
H         15.02982        4.33822        5.15189
H         15.23537        5.75750        6.21923
H         12.76844        5.78225        6.67861
H         12.55179        4.35405        5.62025
H         11.38805        7.19528        5.04575
H         11.15130        5.63538        4.20893
H         12.49253        8.17818        3.06350
H         10.93674        7.44145        2.52986
H         10.18050        5.23392        1.09479
H          9.25387        2.94611        1.25249
H         10.66268        1.07542        2.09092
H         13.02396        1.48901        2.77046
H         13.97700        3.78940        2.61248
H         11.39865        6.75715       -0.01772
H         13.06366        6.32946       -0.53283
H         12.11899        9.01259        0.69016
H         12.72202        8.72394       -0.95945
H         14.12723       10.51426       -0.15777
H         15.70502        9.85389        0.33852
H         15.08632        9.96374        2.71696
H         13.39300       10.39353        2.31712
H         14.31819       11.13367        4.49119
H         14.11994       12.72030        6.33128
H         14.80393       15.99418        3.61543
H         15.01751       14.39218        1.75362
H         15.24404       14.24666        7.82622
H         15.17577       15.95493        8.21290
H         16.96729       17.55744        7.24841
H         17.08062       16.92674        5.58784
H         18.47754       16.83096        6.66457
H         17.29134       15.86931        9.24184
H         18.70400       15.17257        8.41923
H         17.35251       14.12539        8.90388
H         17.09970       14.44027        5.13047
H         17.15857       13.27574        6.46696
H         18.56205       14.30966        6.12485
H         15.09282       17.26713        5.28874
H         14.13878       17.59405        6.73598
H         13.32695       17.10546        5.23737
H         12.91739       14.16410        7.46366
H         12.10838       15.27056        6.33107
H         12.78989       15.88751        7.85555
