61

C          9.88846        0.09345        2.92808
C          8.97327        0.30059        1.71921
C          8.97409       -0.89018        0.75329
C          8.09868       -0.67054       -0.48484
C          8.07950       -1.87887       -1.42619
C          7.23686       -1.62192       -2.69304
C          7.20472       -2.77243       -3.63001
N          7.59393       -2.76231       -4.88662
N          7.35954       -4.03001       -5.35499
C          6.84123       -4.82310       -4.40943
N          6.75065       -4.03543       -3.31445
C          6.47811       -6.26718       -4.47978
C          7.67690       -7.19455       -4.78254
C          8.83484       -7.05012       -3.79129
C         10.02622       -7.95404       -4.12438
C         11.19183       -7.81076       -3.13943
C         12.39127       -8.69171       -3.49619
C          7.61714       -4.28892       -6.78307
C          6.37285       -4.70759       -7.58994
C          5.05213       -4.03322       -7.18928
C          5.05878       -2.49374       -7.22300
S          3.87707       -1.87746       -6.00830
O          2.53460       -2.23913       -6.40276
O          4.38712       -2.21656       -4.69568
O          4.05487       -0.27622       -6.15851
H          9.86561        0.96152        3.60002
H         10.93283       -0.05862        2.61821
H          9.58556       -0.78672        3.51447
H          9.28063        1.20903        1.17452
H          7.94196        0.48811        2.06246
H          8.63434       -1.79390        1.28981
H         10.01022       -1.09928        0.43398
H          8.45985        0.21384       -1.03693
H          7.06658       -0.43430       -0.17337
H          7.68504       -2.75391       -0.87971
H          9.10822       -2.13904       -1.72419
H          7.62985       -0.76380       -3.25472
H          6.19697       -1.37311       -2.42220
H          6.37174       -4.33053       -2.41828
H          5.68969       -6.40139       -5.23586
H          6.02609       -6.54107       -3.51528
H          8.03549       -7.01805       -5.80906
H          7.29580       -8.22662       -4.77606
H          8.47450       -7.27434       -2.77182
H          9.18060       -6.00025       -3.76805
H         10.38041       -7.72655       -5.14531
H          9.69226       -9.00553       -4.14799
H         10.84004       -8.05734       -2.12363
H         11.50771       -6.75399       -3.10302
H         12.11617       -9.75640       -3.50842
H         13.20586       -8.56885       -2.77055
H         12.79110       -8.44124       -4.48976
H          8.40858       -5.04559       -6.86463
H          8.03273       -3.34074       -7.14077
H          6.23253       -5.79641       -7.52320
H          6.61087       -4.50454       -8.64486
H          4.77560       -4.36192       -6.17585
H          4.25417       -4.40546       -7.84452
H          4.76924       -2.08942       -8.20133
H          6.01850       -2.04901       -6.92668
H          3.27773        0.06700       -6.64227
