66

F          0.71905        0.42934        0.77442
C          1.89202       -0.13176        0.28300
C          2.82792       -0.37328        1.47229
N          4.10999       -0.96525        1.02864
C          4.21327       -2.29137        0.76993
N          3.48216       -3.24239        1.40532
C          3.19468       -3.58865        2.86364
C          3.84960       -2.58352        3.86408
C          3.25122       -2.69141        5.27670
C          5.37863       -2.71699        3.93337
C          1.66443       -3.70878        3.00648
O          1.04656       -2.43234        2.89729
C          3.75497       -5.01432        3.04448
N          5.02475       -2.72152       -0.21750
C          5.73770       -1.89409       -1.19503
C          5.34533       -0.42692       -1.05462
C          5.05045       -0.02009        0.39410
C          6.22336        0.42528        1.34062
C          7.52099       -0.46594        1.57408
C          8.78973       -0.22699        0.64694
C          9.85436        0.91530        0.95069
C         10.69346        0.98007        2.29886
C         11.52211       -0.25698        2.83002
C         12.70724       -0.88381        1.98873
C         13.92223        0.03122        1.58029
F         14.38485        0.71969        2.63565
F         14.90083       -0.75939        1.10950
F         13.56583        0.89294        0.61135
F         13.19969       -1.88191        2.76500
F         12.20267       -1.43160        0.85241
F         12.03347        0.13744        4.02084
F         10.64291       -1.27393        3.06231
F         11.55548        2.01374        2.12748
F          9.83692        1.31370        3.29802
F         10.73640        0.83208       -0.07728
F          9.21788        2.10997        0.87070
F          9.45385       -1.40408        0.59140
F          8.32468        0.03587       -0.61604
F          7.89342       -0.36500        2.86350
F          7.15149       -1.77169        1.36026
F          6.61969        1.65253        0.89442
F          5.66536        0.60161        2.57688
H          2.30993        0.56421       -0.46345
H          1.64040       -1.08458       -0.21067
H          2.31183       -1.03682        2.16916
H          3.05263        0.56544        1.99265
H          3.42189       -4.08677        0.83966
H          3.62060       -1.56954        3.51551
H          3.36782       -3.69813        5.70372
H          2.18997       -2.41749        5.30107
H          3.78336       -2.00007        5.94264
H          5.68279       -3.58888        4.52875
H          5.80648       -1.82885        4.41511
H          5.85024       -2.80828        2.94858
H          1.44680       -4.17849        3.98001
H          1.29495       -4.39086        2.21870
H          0.08980       -2.52363        3.02431
H          4.82590       -5.05770        2.81567
H          3.22959       -5.72968        2.39397
H          3.61768       -5.35485        4.07831
H          5.30920       -3.69442       -0.16270
H          5.49849       -2.25277       -2.20663
H          6.81450       -2.03848       -1.04040
H          4.42130       -0.23837       -1.61866
H          6.11856        0.21251       -1.49426
H          4.50394        0.93214        0.34442
