113

Br         1.92727       -2.83918        0.73326
C          3.60069       -2.35851        1.64215
C          3.62827       -0.89902        2.07561
C          4.88948       -0.64424        2.91930
C          5.09902        0.78396        3.44269
N          3.95471        1.29394        4.18734
C          4.29723        2.49398        4.93230
C          4.60713        3.69019        4.00940
N          5.58963        3.16554        2.91090
C          5.36720        1.78292        2.32018
C          3.37674        4.34558        3.34023
C          2.72015        3.67194        2.13005
C          1.51581        4.47740        1.63392
S          0.87542        3.79666        0.08910
C         -0.16532        2.44449        0.69257
S         -0.82260        2.44519        2.22449
N         -0.37844        1.50096       -0.25218
C          0.45388        1.37359       -1.46250
C          1.78781        0.68931       -1.14238
C          2.69460        0.48228       -2.35575
C          4.03850       -0.14643       -1.96925
C          4.97627       -0.40231       -3.15190
C          6.32310       -1.00726       -2.74343
C          7.25964       -1.28535       -3.92489
C          8.60691       -1.87909       -3.50677
C         -1.40366        0.46016       -0.07129
C         -2.68591        0.80370       -0.83712
C         -3.76862       -0.27226       -0.71464
C         -4.99778        0.03534       -1.57730
C         -6.11641       -1.00489       -1.46272
C         -7.29169       -0.73428       -2.40765
C         -8.43086       -1.75285       -2.28859
C         -9.56537       -1.51071       -3.28726
C          5.43281        4.75894        4.75726
C          4.69291        5.43107        5.92326
C          5.42850        6.69418        6.38898
S          4.37327        7.79664        7.35966
C          3.39515        8.57874        6.06847
S          3.66055        8.30918        4.43649
N          2.45025        9.41421        6.55474
C          2.14115        9.61227        7.97636
C          0.69567        9.17621        8.24326
O         -0.22172        9.87009        7.40749
C          0.07833        9.66249        6.02757
C          1.49762       10.11732        5.68540
H          4.39896       -2.59657        0.92953
H          3.66347       -3.04425        2.49518
H          2.72272       -0.66191        2.65181
H          3.60891       -0.25573        1.18422
H          5.78836       -0.92975        2.34819
H          4.87751       -1.31005        3.79813
H          6.01375        0.75247        4.08472
H          3.55845        0.58404        4.80210
H          5.17514        2.33525        5.59961
H          3.45137        2.77941        5.57043
H          6.52633        3.18179        3.33893
H          5.60743        3.86263        2.15429
H          6.27479        1.53763        1.75197
H          4.51332        1.85027        1.64049
H          3.65604        5.37710        3.06548
H          2.61973        4.45458        4.13063
H          2.39022        2.65327        2.37781
H          3.42756        3.59785        1.28555
H          1.78283        5.51936        1.40232
H          0.69135        4.46716        2.36477
H          0.61229        2.35873       -1.92341
H         -0.12239        0.78375       -2.18871
H          1.58325       -0.27967       -0.66162
H          2.31044        1.30836       -0.39354
H          2.87109        1.44666       -2.86298
H          2.18971       -0.16357       -3.09406
H          3.85080       -1.09801       -1.44128
H          4.54692        0.51397       -1.23995
H          5.14831        0.54259       -3.69606
H          4.47682       -1.07614       -3.86877
H          6.14807       -1.94759       -2.18997
H          6.82895       -0.32732       -2.03254
H          7.42535       -0.34891       -4.48359
H          6.75724       -1.96996       -4.62833
H          9.15265       -1.20078       -2.83322
H          9.25044       -2.06756       -4.37662
H          8.47659       -2.83555       -2.97877
H         -1.59924        0.36846        1.00405
H         -0.97632       -0.49209       -0.42421
H         -2.44738        0.95963       -1.90329
H         -3.06717        1.76623       -0.45997
H         -4.06954       -0.37428        0.34180
H         -3.35346       -1.25189       -1.01034
H         -4.68361        0.11507       -2.63305
H         -5.39447        1.02912       -1.30625
H         -6.48004       -1.03881       -0.42086
H         -5.70583       -2.00850       -1.67216
H         -6.92284       -0.72252       -3.44876
H         -7.68830        0.27914       -2.21913
H         -8.83030       -1.73241       -1.26060
H         -8.02486       -2.76853       -2.43351
H        -10.00708       -0.51102       -3.15808
H        -10.37203       -2.24695       -3.16821
H         -9.20441       -1.57899       -4.32463
H          5.70858        5.54939        4.03780
H          6.37087        4.30545        5.12827
H          4.56543        4.73744        6.76723
H          3.69405        5.73358        5.58483
H          5.79221        7.27513        5.52895
H          6.27452        6.46736        7.05424
H          2.26559       10.68109        8.21353
H          2.83056        9.04030        8.60757
H          0.41445        9.40941        9.27881
H          0.60958        8.08229        8.08815
H         -0.65637       10.24749        5.45920
H         -0.04044        8.59239        5.76746
H          1.60295       11.19973        5.86286
H          1.75103        9.89474        4.64282
