113

C          1.02188       -0.84563       -0.74386
C          2.46416       -0.52806       -0.34049
C          3.07212        0.64284       -1.12131
C          4.50401        0.98583       -0.69936
C          5.12047        2.14819       -1.48477
C          6.53027        2.52185       -1.01690
C          7.17123        3.66033       -1.81696
C          8.53868        4.08902       -1.27531
C          9.20836        5.20238       -2.08718
C         10.53725        5.67673       -1.49097
C         11.23168        6.76487       -2.31631
C         12.52009        7.29208       -1.67629
C         13.25360        8.32653       -2.53611
C         14.48884        8.92777       -1.85764
C         15.27296        9.88722       -2.75868
C         16.44729       10.57658       -2.05616
C         17.26836       11.46954       -2.99166
C         18.37846       12.24817       -2.27875
C         19.11865       13.19413       -3.22731
C         20.10475       14.13297       -2.48471
C         20.64820       15.19321       -3.38934
N         21.68564       14.83230       -4.18690
C         22.27152       15.61661       -5.12688
C         21.80866       16.90461       -5.32261
C         20.74588       17.32803       -4.49773
C         20.15251       16.50706       -3.53574
C         19.00366       17.02594       -2.69591
C         17.68692       16.31345       -2.96202
C         16.97719       15.70876       -1.91766
C         15.80273       14.99852       -2.16834
C         15.29388       14.87303       -3.46955
C         15.99458       15.50618       -4.50914
C         17.17083       16.21404       -4.26224
C         14.02909       14.09982       -3.73685
C         22.40313       17.83129       -6.34545
C         23.06899       19.06364       -5.69020
C         23.11506       20.25842       -6.65140
S         23.19596       21.86172       -5.81466
C         21.49970       22.08772       -5.27990
S         20.28134       20.97732       -5.60268
N         21.30002       23.25028       -4.61974
C         22.33033       24.26588       -4.36563
C         22.34699       24.62652       -2.87696
O         21.06750       25.04697       -2.42260
C         20.09336       24.02773       -2.63663
C         19.98109       23.65099       -4.11247
H          0.61655       -1.68770       -0.16592
H          0.95433       -1.11189       -1.80945
H          0.36142        0.01880       -0.57930
H          3.09303       -1.42357       -0.48340
H          2.50388       -0.30239        0.73911
H          2.43223        1.53444       -0.99668
H          3.05371        0.40863       -2.20046
H          5.14263        0.09177       -0.81163
H          4.51594        1.22892        0.37815
H          4.46427        3.03285       -1.40330
H          5.14536        1.89092       -2.55860
H          7.18098        1.63087       -1.06833
H          6.49369        2.80389        0.05050
H          6.49303        4.53198       -1.82052
H          7.27262        3.35386       -2.87304
H          9.20942        3.21233       -1.23927
H          8.42393        4.42093       -0.22811
H          8.51935        6.06184       -2.16704
H          9.37312        4.85217       -3.12150
H         11.21807        4.81435       -1.37969
H         10.36080        6.05235       -0.46746
H         10.53368        7.60644       -2.47210
H         11.45652        6.37103       -3.32339
H         13.19933        6.44616       -1.46894
H         12.28242        7.73439       -0.69251
H         12.55631        9.13940       -2.80541
H         13.55176        7.85831       -3.49073
H         15.15801        8.11477       -1.52554
H         14.17861        9.45573       -0.93863
H         14.58828       10.65730       -3.15745
H         15.64506        9.33473       -3.63914
H         17.10448        9.81577       -1.60081
H         16.06369       11.18396       -1.21713
H         16.59732       12.19078       -3.48834
H         17.70399       10.85393       -3.79793
H         19.09032       11.55061       -1.80460
H         17.93340       12.84018       -1.46169
H         18.38703       13.80891       -3.77005
H         19.66764       12.61527       -3.98991
H         20.93600       13.54866       -2.05605
H         19.58685       14.60651       -1.64193
H         22.04690       13.88536       -4.06690
H         23.09359       15.17101       -5.68458
H         20.37545       18.35193       -4.62147
H         18.90413       18.10399       -2.89371
H         19.25735       16.93061       -1.62869
H         17.35123       15.78231       -0.89369
H         15.27680       14.52426       -1.33733
H         15.61751       15.43461       -5.53121
H         17.69637       16.68355       -5.09713
H         13.92334       13.25351       -3.04536
H         14.00287       13.71111       -4.76280
H         13.14370       14.74101       -3.60583
H         21.58173       18.18871       -6.98691
H         23.10692       17.29142       -6.99506
H         24.07654       18.81298       -5.32697
H         22.47429       19.35349       -4.81399
H         22.22081       20.28049       -7.29036
H         24.00733       20.24867       -7.29407
H         22.09782       25.15902       -4.96959
H         23.31728       23.89710       -4.66716
H         23.03327       25.46589       -2.70372
H         22.69672       23.75427       -2.28995
H         19.13753       24.43136       -2.27792
H         20.34585       23.12807       -2.04103
H         19.63002       24.51611       -4.70003
H         19.28778       22.81586       -4.26432
