57

C          1.31971       -2.52634       -3.98440
C          2.23667       -2.49559       -2.75934
C          3.53170       -1.71054       -3.00365
C          4.45220       -1.60775       -1.78354
N          4.97982       -2.91155       -1.34768
C          6.23662       -3.31027       -1.56530
O          7.12700       -2.63159       -2.10184
C          6.61978       -4.73822       -1.10235
N          8.11097       -4.79576       -1.24922
C          8.84709       -4.57092        0.05831
C          8.74762       -5.71790        1.02703
C          9.86129       -6.00239        1.94904
O          9.62979       -6.82456        0.79215
C          8.63381       -5.96086       -2.06769
C          8.21343       -5.85702       -3.52896
C          8.87771       -6.94252       -4.38805
N          8.36579       -6.87725       -5.74857
C          8.90452       -7.94536       -6.61493
C          8.44553       -7.79684       -8.04426
C          7.52255       -8.68059       -8.61483
C          7.12049       -8.56209       -9.94707
C          7.64615       -7.53649      -10.73540
C          8.56263       -6.63569      -10.19044
C          8.95594       -6.76611       -8.85564
O          9.85313       -5.89423       -8.27150
H          0.40086       -3.09085       -3.78005
H          1.81688       -2.99753       -4.84452
H          1.02623       -1.51069       -4.28574
H          2.47274       -3.53454       -2.46686
H          1.69897       -2.05008       -1.90512
H          3.28361       -0.68079       -3.30742
H          4.09465       -2.15065       -3.84311
H          3.91800       -1.16803       -0.92775
H          5.32336       -0.97817       -1.99967
H          4.33213       -3.56791       -0.92072
H          6.15796       -5.48938       -1.75432
H          6.32489       -4.94171       -0.06690
H          8.24605       -3.89539       -1.80950
H          8.43133       -3.64946        0.49196
H          9.89650       -4.38614       -0.20626
H          7.74031       -6.00650        1.35131
H          9.64112       -6.47441        2.90963
H         10.76628       -5.38881        1.91286
H          8.28845       -6.88881       -1.59227
H          9.72715       -5.92912       -1.96628
H          8.48548       -4.86193       -3.92073
H          7.12368       -5.95924       -3.64847
H          8.63156       -7.93801       -3.97980
H          9.98498       -6.84381       -4.32005
H          8.62244       -5.97968       -6.16742
H          8.54828       -8.91006       -6.22178
H         10.01425       -7.97250       -6.58765
H          7.11997       -9.48466       -7.99532
H          6.40576       -9.26821      -10.36897
H          7.34587       -7.43303      -11.77847
H          8.97776       -5.83107      -10.80315
H         10.17558       -5.27983       -8.95061
