60

O          2.66567        2.30609       -1.49799
C          3.88488        1.99545       -2.16486
C          3.50465        1.21753       -3.41635
O          4.72195        0.82459       -4.06036
C          4.51948        0.03459       -5.20897
O          5.76948       -0.48969       -5.60222
C          6.31633       -1.40660       -4.67143
C          7.81430       -1.31902       -4.67529
C          8.45112       -0.21522       -5.25950
C          9.82842       -0.10325       -5.23169
N         10.58535       -1.06209       -4.64671
C          9.99516       -2.14803       -4.08827
C          8.62006       -2.31791       -4.07654
C          8.04033       -3.55250       -3.40602
C          7.27325       -3.22640       -2.20777
C          6.63903       -2.93590       -1.22077
C         12.07297       -0.96727       -4.66489
C         12.69847       -1.74389       -5.82942
C         12.32807       -1.26924       -7.24830
C         12.80396        0.17101       -7.51944
C         12.23010        0.81676       -8.79669
C         12.56604        2.27990       -8.88230
C         13.52632        2.86006       -9.62563
C         14.44473        2.11573      -10.55825
C         13.74791        4.34844       -9.56801
C         12.88512       -2.26560       -8.27629
H          2.85360        2.91728       -0.77061
H          4.54829        1.37041       -1.53759
H          4.44207        2.90448       -2.45215
H          2.89349        1.85009       -4.08425
H          2.90527        0.32971       -3.14145
H          4.17216        0.63309       -6.06814
H          3.79022       -0.77585       -4.99542
H          5.99143       -2.43863       -4.90714
H          5.97027       -1.18310       -3.64444
H          7.85000        0.55952       -5.73147
H         10.36591        0.73957       -5.66201
H         10.67095       -2.87566       -3.63991
H          8.85391       -4.24776       -3.14779
H          7.39728       -4.09160       -4.12368
H          6.07263       -2.70364       -0.34225
H         12.42619       -1.35443       -3.70073
H         12.31783        0.10091       -4.70310
H         12.44684       -2.81190       -5.71904
H         13.79034       -1.67634       -5.68968
H         11.22480       -1.28723       -7.34322
H         13.90583        0.18918       -7.57102
H         12.54691        0.83023       -6.67151
H         11.13189        0.69407       -8.79376
H         12.59128        0.27813       -9.68365
H         11.97119        2.93496       -8.23450
H         14.26879        1.03385      -10.57708
H         15.49625        2.28132      -10.27490
H         14.34094        2.49413      -11.58755
H         13.05528        4.83985       -8.87304
H         13.61779        4.80453      -10.56260
H         14.77751        4.58293       -9.25336
H         13.98490       -2.28883       -8.24474
H         12.58649       -1.99840       -9.29741
H         12.52208       -3.28505       -8.08396
