49

C          2.77227        1.17056        3.93020
C          3.30593        0.89356        2.87775
C          3.99678        0.43886        1.72435
C          4.49794       -0.89639        1.80124
C          5.25065       -1.49270        0.81297
C          5.61364       -2.94737        0.92354
C          4.61012       -3.85692        0.15692
O          4.61988       -3.47500       -1.22728
C          3.37754       -2.98255       -1.75044
C          3.65540       -2.19458       -3.00732
C          4.49908       -2.70988       -4.00495
C          4.77079       -1.96761       -5.15519
C          4.19073       -0.70491       -5.33340
C          3.33437       -0.19388       -4.35434
C          3.07673       -0.93229       -3.19440
C          4.97285       -5.33126        0.28272
C          5.57947       -0.70494       -0.33465
C          5.02504        0.62453       -0.47407
C          4.21003        1.19127        0.56015
C          3.64041        2.60222        0.43936
C          4.67004        3.71895        0.80478
F          4.05585        4.92570        0.76626
F          5.13152        3.49376        2.06865
F          3.23214        2.85275       -0.86559
F          2.53727        2.75908        1.20740
C          5.30846        1.30102       -1.68054
N          6.08188        0.74466       -2.61751
C          6.65935       -0.48388       -2.49747
C          6.41256       -1.20976       -1.36379
H          2.28453        1.45134        4.84180
H          4.25238       -1.45881        2.70296
H          5.60770       -3.24241        1.98184
H          6.62782       -3.14936        0.54888
H          3.60310       -3.68122        0.57537
H          2.87499       -2.33533       -1.00994
H          2.70035       -3.83188       -1.96275
H          4.94766       -3.69517       -3.87246
H          5.42043       -2.38324       -5.92672
H          4.38287       -0.13772       -6.24523
H          2.85495        0.77613       -4.49691
H          2.40794       -0.52664       -2.43163
H          5.96361       -5.52433       -0.15132
H          4.23923       -5.94755       -0.25163
H          4.98687       -5.64862        1.33451
H          5.52778        3.72896        0.10924
H          4.90166        2.27479       -1.92937
H          6.20773        1.25199       -3.49271
H          7.25622       -0.82934       -3.33627
H          6.84135       -2.20294       -1.28342
