51

F         -0.01671       -0.15311       -0.55191
C          1.30906        0.13102       -0.63328
C          2.08515       -1.01546       -1.27202
C          1.96834       -2.30372       -0.45692
N          2.74066       -3.37006       -1.10824
C          2.89885       -4.59908       -0.60970
N          2.32927       -5.04539        0.52369
C          2.90578       -6.35569        0.92021
C          3.43812       -6.85639       -0.46599
N          3.65036       -5.56382       -1.16512
C          4.68603       -7.73348       -0.47541
C          5.18594       -8.10419       -1.88625
C          6.41588       -8.98221       -1.80685
C          6.29395      -10.37662       -1.73288
C          7.42658      -11.18252       -1.59703
C          8.69618      -10.60229       -1.53419
C          8.82850       -9.21329       -1.61053
C          7.69424       -8.41023       -1.74551
C          3.93848       -6.16641        2.04501
C          4.18751       -7.46145        2.82924
C          5.34003       -7.48824        3.83552
C          6.77549       -7.72624        3.24084
Br         7.50243       -6.23908        2.16640
F          7.64472       -7.97875        4.22875
F          6.71805       -8.82114        2.43964
Br         5.35099       -5.91415        5.01097
F          5.13348       -8.59503        4.63420
F          1.45090        1.26119       -1.35316
F          1.74758        0.37923        0.62955
H          3.13310       -0.69208       -1.35077
H          1.68345       -1.15165       -2.28670
H          0.91279       -2.60684       -0.37809
H          2.36180       -2.13271        0.55754
H          3.18875       -3.16085       -1.99445
H          1.95314       -4.40851        1.21922
H          2.08934       -7.00988        1.25621
H          2.61455       -7.38771       -0.97623
H          3.95838       -5.52861       -2.13067
H          4.45369       -8.66714        0.05757
H          5.50275       -7.24296        0.07348
H          5.44185       -7.19329       -2.45405
H          4.38684       -8.61885       -2.44391
H          5.30519      -10.83826       -1.79015
H          7.31755      -12.26636       -1.54771
H          9.58098      -11.23142       -1.43543
H          9.81702       -8.75471       -1.57139
H          7.80525       -7.32472       -1.80872
H          3.55215       -5.41054        2.74543
H          4.86985       -5.75417        1.63378
H          4.35928       -8.31499        2.15843
H          3.29235       -7.70595        3.42009
