104

C          1.78577        0.80088       -1.07845
C          2.97419        0.35362       -0.23005
C          2.63994       -0.08735        1.22456
C          2.05470        0.92941        2.23117
C          0.53225        1.08428        2.09672
C         -0.07178        2.20970        2.93678
C          0.65907        3.51815        2.63666
C          2.15117        3.43026        2.96886
N          2.76649        2.29822        2.10810
C          4.26722        2.18077        2.27009
C          5.01882        3.38773        1.71459
C          6.50743        3.04507        1.54943
C          7.28837        4.20361        0.92322
S          9.00064        3.67403        0.63552
O          9.64623        3.46600        1.91006
O          9.00344        2.65729       -0.39087
Cl         9.78055        5.40850       -0.19277
C          2.48616        3.25765        4.45499
C          1.80633        4.31399        5.33214
O          2.41760        4.24873        6.60163
C          1.75290        5.06913        7.56738
C          2.50526        4.95990        8.88680
O          1.69031        5.63585        9.83249
C          2.11344        5.69367       11.14386
C          1.20882        6.27668       12.04192
C          1.53627        6.38084       13.38589
C          2.77202        5.92872       13.89056
C          3.65121        5.34470       12.97359
C          3.34013        5.22096       11.61164
C          3.09335        6.07101       15.38446
C          3.00925        7.55712       15.86968
C          3.85383        8.73378       15.29222
C          5.37457        8.52261       15.42638
C          3.52388        9.04815       13.81932
C          3.46996        9.96682       16.14081
C          2.00780        5.30031       16.18214
C          4.44142        5.42331       15.75610
O          3.55465       -0.74728       -0.91371
C          4.96430       -0.95486       -0.68025
C          5.43210       -2.06448       -1.57858
C          5.20441       -3.40175       -1.22381
C          5.59349       -4.43464       -2.07734
C          6.22238       -4.13885       -3.29098
C          6.45983       -2.80917       -3.64846
C          6.06309       -1.77646       -2.79581
H          1.33763        1.74049       -0.72140
H          1.00318        0.03067       -1.09834
H          2.12717        0.96565       -2.10751
H          3.72086        1.18025       -0.21572
H          3.54435       -0.54269        1.65135
H          1.91027       -0.90740        1.15114
H          2.29442        0.59537        3.25158
H          0.09967        0.11263        2.37433
H          0.26869        1.24086        1.04093
H         -0.01507        1.97179        4.01028
H         -1.13930        2.31145        2.70106
H          0.23116        4.36159        3.19436
H          0.54077        3.77747        1.56997
H          2.64862        4.33926        2.59945
H          2.60968        2.59736        1.13400
H          4.56982        1.28067        1.72681
H          4.47174        2.00844        3.33281
H          4.90291        4.26760        2.36517
H          4.59929        3.65814        0.72881
H          6.60602        2.15420        0.90917
H          6.94757        2.79061        2.52551
H          7.34556        5.08526        1.57534
H          6.89823        4.49522       -0.06138
H          3.56735        3.36945        4.61852
H          2.20711        2.26166        4.82783
H          0.71911        4.11956        5.41681
H          1.92422        5.32654        4.88971
H          0.71100        4.72780        7.70904
H          1.72579        6.12134        7.22903
H          3.50280        5.42684        8.80467
H          2.63910        3.89767        9.16011
H          0.25181        6.63866       11.66493
H          0.81099        6.84373       14.05646
H          4.61884        4.97200       13.30700
H          4.06426        4.75769       10.94207
H          3.20622        7.52570       16.95548
H          1.95362        7.86532       15.78065
H          5.74981        7.76888       14.72175
H          5.65657        8.21182       16.44305
H          5.90437        9.46147       15.20714
H          3.83209        8.24253       13.14135
H          4.04573        9.96595       13.50849
H          2.44629        9.21258       13.67358
H          3.72305        9.81753       17.20104
H          2.39116       10.17438       16.07975
H          4.00421       10.86210       15.79070
H          1.00468        5.71795       16.02178
H          2.21936        5.34508       17.26040
H          1.98527        4.24381       15.88015
H          5.29115        5.82388       15.19279
H          4.41003        4.33622       15.59303
H          4.64910        5.58972       16.82211
H          5.14660       -1.22045        0.37895
H          5.51003       -0.01699       -0.90016
H          4.71405       -3.63341       -0.27575
H          5.41088       -5.47194       -1.79481
H          6.53021       -4.94742       -3.95485
H          6.95591       -2.57579       -4.59102
H          6.24820       -0.73745       -3.07676
