117

C         19.76629       -3.50729       -9.42199
C         19.01432       -3.22612       -8.11891
C         19.59870       -2.06035       -7.31399
C         18.83127       -1.75890       -6.02297
C         19.41297       -0.59298       -5.21830
C         18.61688       -0.25331       -3.95402
C         19.19468        0.93251       -3.17583
C         18.39396        1.31672       -1.92755
C         18.96576        2.53979       -1.20403
C         18.17058        2.97080        0.03254
C         18.72973        4.23658        0.68951
C         17.91630        4.73809        1.88750
C         18.45855        6.05075        2.46242
C         17.61144        6.64375        3.59347
C         18.12939        8.01247        4.05447
C         17.21678        8.67572        5.09645
C         17.58456       10.09310        5.55485
C         17.76984       11.12480        4.44574
N         18.10003       12.40358        5.06141
C         19.40594       12.38346        5.69572
C         19.49648       11.36745        6.86736
N         18.86522       10.05008        6.37014
C         21.01144       11.06890        7.07555
C         21.71367       10.32811        5.94905
O         21.17786        9.45581        5.25843
O         22.98247       10.68944        5.84317
C         23.81931        9.98179        4.85238
C         23.80146       10.69269        3.50910
C         24.74921       10.01227        2.51104
C         24.78750       10.71033        1.14699
C         25.74679       10.04446        0.15508
C         25.80542       10.74683       -1.20518
C         26.75671       10.07415       -2.20137
C         26.81386       10.78283       -3.55689
C         18.80964       11.82506        8.22561
C         18.41133       10.62641        9.15005
C         19.36700        9.49121        9.60633
C         20.46112        9.94241       10.58741
C         18.51428        8.38517       10.25195
C         19.77461       12.81075        8.97339
O         19.26312       13.23856       10.22702
C         17.49759       12.61485        8.00465
H         19.32210       -4.34966       -9.97013
H         20.82105       -3.75542       -9.23037
H         19.75042       -2.63227      -10.08908
H         19.01230       -4.13350       -7.49125
H         17.95502       -3.01451       -8.34359
H         19.61626       -1.15473       -7.94639
H         20.65445       -2.27702       -7.07192
H         18.80875       -2.66424       -5.39095
H         17.77751       -1.53967       -6.27056
H         19.46546        0.30242       -5.86286
H         20.45676       -0.82442       -4.94151
H         18.57291       -1.13972       -3.29698
H         17.57100       -0.03230       -4.23149
H         19.25572        1.80763       -3.84699
H         20.23557        0.70542       -2.88496
H         18.35635        0.45919       -1.23313
H         17.34678        1.51958       -2.21354
H         19.01200        3.38547       -1.91319
H         20.01151        2.33603       -0.91326
H         18.15195        2.14743        0.76763
H         17.11831        3.14459       -0.25365
H         18.77986        5.03889       -0.06820
H         19.77296        4.05643        1.00385
H         17.89543        3.96499        2.67494
H         16.86661        4.88367        1.57751
H         18.52864        6.79223        1.64672
H         19.49253        5.89775        2.81821
H         17.58066        5.94610        4.44799
H         16.56798        6.74931        3.24926
H         18.21680        8.66318        3.16972
H         19.15450        7.89580        4.44419
H         17.12879        8.02966        5.98813
H         16.19404        8.74315        4.69157
H         16.80424       10.45993        6.23380
H         16.82167       11.21670        3.89943
H         18.53885       10.77661        3.72498
H         18.03912       13.16689        4.39052
H         19.63247       13.38193        6.09402
H         20.21817       12.14083        4.97535
H         18.70994        9.45379        7.19286
H         19.63343        9.58979        5.79326
H         21.17765       10.46955        7.98212
H         21.54360       12.01337        7.23446
H         23.46020        8.94746        4.77716
H         24.81606        9.99654        5.30951
H         24.09797       11.74391        3.65250
H         22.77538       10.69400        3.10736
H         24.44668        8.95978        2.37533
H         25.76802        9.98528        2.93406
H         25.07928       11.76581        1.28608
H         23.77071       10.72993        0.71714
H         25.44932        8.99100        0.01040
H         26.75967       10.01422        0.59340
H         26.11342       11.79750       -1.06058
H         24.79119       10.78754       -1.64068
H         26.44762        9.02500       -2.34556
H         27.76840       10.03248       -1.76367
H         25.82618       10.80122       -4.04114
H         27.50994       10.28184       -4.24309
H         27.14793       11.82549       -3.44882
H         17.51848       10.15326        8.70101
H         18.02522       11.09706       10.06716
H         19.87260        9.02271        8.73750
H         20.02337       10.50200       11.42607
H         21.22236       10.58945       10.13187
H         20.98694        9.07067       10.99885
H         17.98060        8.76829       11.13416
H         19.14161        7.54630       10.58076
H         17.76054        7.98857        9.55545
H         19.98838       13.67745        8.32230
H         20.73112       12.33423        9.20925
H         18.68296       14.00356       10.09733
H         16.72456       12.03680        7.48960
H         17.65093       13.53342        7.42607
H         17.08842       12.88784        8.98642
