92

C          0.07741       -0.56316       -2.76068
C          1.60484       -0.48477       -2.69130
C          2.27540       -1.85189       -2.51579
C          3.80328       -1.78408       -2.42838
C          4.46833       -3.15262       -2.25073
C          5.99652       -3.09089       -2.16193
C          6.65180       -4.46185       -1.96721
C          8.17943       -4.40881       -1.86605
C          8.82592       -5.78259       -1.66105
C         10.35098       -5.72936       -1.52863
C         10.99658       -7.10202       -1.31255
C         12.51726       -7.03632       -1.14310
C         13.17241       -8.40141       -0.90838
C         14.68991       -8.30437       -0.71952
C         15.34722       -9.66962       -0.47557
C         16.88904       -9.64281       -0.40126
C         17.39252       -8.85663        0.81434
C         18.90990       -8.75715        1.01623
C         19.26512       -7.73837        2.10708
C         20.76879       -7.62842        2.37663
C         21.09882       -6.59279        3.45727
C         22.59563       -6.52726        3.74874
O         22.90626       -5.49287        4.71018
C         22.80946       -5.85509        6.02726
O         22.48232       -6.96766        6.39855
C         23.16102       -4.70560        6.89597
C         23.14046       -4.81937        8.22847
O         17.46158       -9.00665       -1.59811
C         17.29434       -9.86679       -2.65775
N         17.50985      -11.28103       -2.04395
C         17.53529      -11.05247       -0.52187
C         16.93138      -12.22377        0.23805
C         17.73693      -13.52779        0.11942
C         17.15311      -14.66376        0.96256
H         -0.37287        0.43130       -2.88647
H         -0.34193       -1.00337       -1.84315
H         -0.25381       -1.18634       -3.60519
H          1.90277        0.17417       -1.85781
H          1.99233       -0.00555       -3.60675
H          1.98616       -2.50899       -3.35536
H          1.87893       -2.33670       -1.60574
H          4.09170       -1.12729       -1.58846
H          4.20046       -1.30008       -3.33822
H          4.17854       -3.81029       -3.08949
H          4.07065       -3.63488       -1.34023
H          6.28716       -2.42623       -1.32916
H          6.39771       -2.61976       -3.07671
H          6.36415       -5.12543       -2.80186
H          6.24400       -4.93265       -1.05514
H          8.46663       -3.74348       -1.03272
H          8.59162       -3.94293       -2.77856
H          8.55396       -6.44380       -2.50270
H          8.39923       -6.25408       -0.75818
H         10.61954       -5.06578       -0.68782
H         10.78139       -5.26060       -2.43111
H         10.74928       -7.76146       -2.16326
H         10.55077       -7.57838       -0.42171
H         12.75970       -6.36955       -0.29722
H         12.96587       -6.56553       -2.03546
H         12.94678       -9.06893       -1.75950
H         12.71988       -8.87835       -0.02162
H         14.90146       -7.63240        0.12650
H         15.14220       -7.82725       -1.60408
H         15.00357      -10.36792       -1.26174
H         14.97408      -10.10038        0.46685
H         16.91878       -9.29131        1.70957
H         16.97994       -7.84114        0.72461
H         19.39418       -8.46277        0.07130
H         19.33253       -9.73630        1.30133
H         18.74692       -8.00795        3.04323
H         18.87127       -6.74975        1.81577
H         21.29187       -7.36879        1.43948
H         21.15841       -8.61496        2.68280
H         20.56710       -6.84413        4.38781
H         20.75089       -5.59544        3.14362
H         23.16483       -6.24836        2.85097
H         22.96263       -7.49125        4.13020
H         23.43584       -3.77682        6.39469
H         22.86384       -5.76449        8.69876
H         23.39991       -3.98174        8.87493
H         18.04988       -9.67538       -3.42921
H         16.28030       -9.87705       -3.09142
H         18.38525      -11.70648       -2.36517
H         16.74399      -11.91495       -2.30376
H         18.60163      -10.95197       -0.27876
H         15.88564      -12.38714       -0.07421
H         16.88231      -11.92155        1.29674
H         18.77977      -13.33601        0.42256
H         17.78105      -13.85471       -0.93606
H         17.14067      -14.39987        2.02946
H         17.74807      -15.57900        0.85367
H         16.12171      -14.89911        0.66407
