88

C         -1.12395       -1.89233       10.92083
C          0.33764       -1.68861       11.32580
C          1.32826       -2.33550       10.35312
C          2.79657       -2.13842       10.74281
C          3.77688       -2.78259        9.75846
C          5.25123       -2.59710       10.13223
C          6.20967       -3.22775        9.11749
C          7.69266       -3.07338        9.47060
C          8.62130       -3.67532        8.41099
C         10.11211       -3.57627        8.75211
C         11.00949       -4.16275        7.65702
C         12.50664       -4.11895        7.98604
C         13.36137       -4.75293        6.88157
C         14.88684       -4.67247        7.09400
P         15.51623       -5.51470        8.57924
C         14.97562       -7.24793        8.66254
C         15.24052       -7.96159       10.00712
C         14.45527       -7.42647       11.21497
C         12.92943       -7.49441       11.07828
C         12.19003       -7.07255       12.35334
C         10.66481       -7.10272       12.21131
C          9.92309       -6.68544       13.48496
C          8.39788       -6.70068       13.33763
C          7.66547       -6.27857       14.61302
C         17.32751       -5.38866        8.69975
C         17.90657       -3.96001        8.70143
C         17.47877       -3.09626        9.89233
C         18.27268       -1.78729        9.98267
N         17.84179       -1.01441       11.14779
H         -1.81119       -1.42008       11.63615
H         -1.37777       -2.96179       10.87166
H         -1.32609       -1.45975        9.92962
H          0.50154       -2.09941       12.33642
H          0.55385       -0.60939       11.39877
H          1.16221       -1.92587        9.34096
H          1.11212       -3.41613       10.27995
H          2.96499       -2.55290       11.75244
H          3.01192       -1.05810       10.81890
H          3.60419       -2.36521        8.75079
H          3.55616       -3.86171        9.67935
H          5.43358       -3.03163       11.13096
H          5.47310       -1.51946       10.22463
H          6.02668       -2.78134        8.12425
H          5.97308       -4.30131        9.01318
H          7.88871       -3.55096       10.44704
H          7.93067       -2.00332        9.60149
H          8.43724       -3.17498        7.44433
H          8.35645       -4.73614        8.25691
H         10.30428       -4.10042        9.70532
H         10.38245       -2.51991        8.92382
H         10.83321       -3.62218        6.71144
H         10.71290       -5.20921        7.46758
H         12.67010       -4.63797        8.94821
H         12.82193       -3.07299        8.14460
H         13.15385       -4.24595        5.92655
H         13.06171       -5.80196        6.72912
H         15.21795       -3.62488        7.17958
H         15.42953       -5.11002        6.24043
H         14.97480       -4.84898        9.69923
H         15.48869       -7.76415        7.83507
H         13.90215       -7.24930        8.42059
H         16.31937       -7.95433       10.22640
H         14.97757       -9.01862        9.84680
H         14.76003       -6.39143       11.45187
H         14.76213       -8.01968       12.09062
H         12.63510       -8.52375       10.80853
H         12.58563       -6.85344       10.24618
H         12.50977       -6.05610       12.64338
H         12.49489       -7.73348       13.18252
H         10.34525       -8.11819       11.91903
H         10.36253       -6.43894       11.38108
H         10.24954       -5.67372       13.78400
H         10.21510       -7.35465       14.31293
H          8.07275       -7.71239       13.04232
H          8.10774       -6.03414       12.50723
H          7.90881       -6.94721       15.45176
H          6.57590       -6.30020       14.47655
H          7.94345       -5.25729       14.91293
H         17.72740       -5.97974        7.85985
H         17.60486       -5.91888        9.62522
H         17.67069       -3.45503        7.75150
H         19.00193       -4.07404        8.71171
H         17.61593       -3.64576       10.83756
H         16.40336       -2.84902        9.83019
H         18.19243       -1.24392        9.01903
H         19.33836       -2.03046       10.11494
H         16.95530       -0.54131       10.96861
H         18.51838       -0.28470       11.36967
