69

C          4.86215        5.76951        6.39672
C          4.57799        5.49493        4.92050
C          4.70731        4.00779        4.57003
C          4.49281        3.68906        3.09893
O          5.46163        4.40525        2.24874
C          6.66992        3.85636        2.11909
O          7.04025        2.78927        2.56738
C          7.56169        4.78855        1.27423
N          8.94671        4.34435        1.20066
C          9.28377        3.23382        0.51286
N         10.54761        2.75700        0.53927
N          8.39318        2.61658       -0.28280
C          8.66887        1.40949       -1.07525
C          9.13944        0.21186       -0.26799
C          8.56913       -0.10714        0.97520
C          8.98589       -1.24268        1.66476
C          9.97398       -2.09718        1.14216
C         10.54291       -1.76359       -0.09441
C         10.13748       -0.62130       -0.78973
C         10.40858       -3.32387        1.89887
C          9.90617        5.03606        2.08118
C          9.88725        4.56152        3.53999
C         10.78945        5.47018        4.38327
S         10.46472        5.41373        6.16293
C          9.07537        6.54322        6.32029
S          8.32751        7.25282        5.00080
N          8.72281        6.76727        7.60890
C          9.46045        6.23809        8.76574
C          8.48818        5.83047        9.87375
O          7.63974        6.90548       10.24813
C          6.85901        7.31811        9.12838
C          7.73073        7.79270        7.96903
H          4.75001        6.83726        6.62790
H          5.89148        5.47802        6.65284
H          4.17905        5.21051        7.05370
H          5.27960        6.08157        4.30741
H          3.56632        5.84633        4.65850
H          3.96071        3.42081        5.13165
H          5.69122        3.62457        4.88562
H          3.52446        4.05415        2.73484
H          4.58764        2.61511        2.89397
H          7.54765        5.78364        1.73678
H          7.12326        4.92055        0.27124
H         11.17938        3.09184        1.25439
H         10.67687        1.78434        0.26108
H          7.43169        2.92390       -0.23509
H          9.40321        1.64976       -1.86057
H          7.72591        1.17988       -1.59157
H          7.80579        0.53869        1.41371
H          8.52921       -1.47871        2.62798
H         11.31266       -2.40708       -0.52409
H         10.59066       -0.38943       -1.75663
H          9.54301       -3.89152        2.26683
H         11.01171       -3.05076        2.77827
H         11.01462       -3.99081        1.27367
H          9.63340        6.10106        2.05442
H         10.90972        4.98298        1.63314
H         10.18989        3.50714        3.62619
H          8.86040        4.63489        3.92003
H         10.67244        6.52225        4.08240
H         11.85140        5.19472        4.29801
H         10.15428        7.01229        9.13655
H         10.04896        5.36168        8.46822
H          9.05153        5.54196       10.77066
H          7.88444        4.96336        9.53876
H          6.22515        8.14483        9.47465
H          6.20783        6.48642        8.80150
H          8.27062        8.71182        8.25595
H          7.12979        8.01142        7.07915
