69

C          1.24598       -0.39167       -0.19772
C          2.77637       -0.35981       -0.18756
C          3.34590       -0.04976        1.20438
C          4.86066       -0.04117        1.20466
O          5.29870        0.36192        2.55915
C          6.55832        0.74402        2.70414
O          7.43863        0.77569        1.86973
C          6.75124        1.20865        4.16210
N          8.12439        1.62029        4.43005
N          8.92534        0.92879        5.21347
N         10.09432        1.52788        5.24088
C         10.02622        2.61963        4.45200
N          8.78705        2.69138        3.91754
C          8.18086        3.68382        3.00493
C          7.23393        4.65080        3.71792
C          6.53391        5.57917        2.71128
N          5.28620        6.06401        3.27716
C          4.45763        6.83609        2.33022
C          3.15928        7.24529        2.97662
C          3.03707        8.48273        3.62132
C          1.85253        8.87166        4.24977
C          0.75341        8.00999        4.22674
C          0.84550        6.77441        3.58542
C          2.04134        6.38956        2.96922
O          2.16656        5.17721        2.33067
C         11.14241        3.57764        4.23863
C         12.44327        2.82548        3.89358
C         13.71933        3.67592        3.93281
C         14.16968        4.40504        2.61030
C         13.27176        5.52566        1.95884
C         12.93966        6.82021        2.78834
F         14.03485        7.34281        3.34496
F         12.38082        7.72421        1.96829
F         12.04105        6.53603        3.76590
F         13.90564        5.92122        0.83520
F         12.07090        4.96009        1.59574
F         15.39087        4.94434        2.82962
F         14.28315        3.43745        1.65251
F         13.66031        4.60673        4.93913
F         14.75884        2.83521        4.21982
H          0.86216       -0.60201       -1.20416
H          0.82370        0.57137        0.12493
H          0.85737       -1.16865        0.47619
H          3.13596        0.39570       -0.90568
H          3.16838       -1.32798       -0.54016
H          2.98391       -0.79169        1.93370
H          2.98370        0.93464        1.54336
H          5.28245        0.67944        0.49016
H          5.29507       -1.03030        1.00163
H          6.56251        0.38323        4.85971
H          6.05897        2.02712        4.39947
H          7.68195        3.11241        2.21194
H          9.02801        4.20518        2.54102
H          7.78597        5.22757        4.47569
H          6.44173        4.09876        4.24508
H          6.27511        5.00694        1.80325
H          7.23743        6.37654        2.38423
H          5.45920        6.63728        4.10594
H          4.26080        6.18692        1.46367
H          4.97856        7.73948        1.95425
H          3.89427        9.16072        3.61507
H          1.78365        9.84056        4.74301
H         -0.18330        8.29843        4.70429
H         -0.01488        6.10015        3.56192
H          1.29779        4.74358        2.33137
H         11.28059        4.13804        5.17702
H         10.87256        4.30771        3.46946
H         12.37295        2.33939        2.91146
H         12.60777        2.03362        4.63707
