54

C          5.55407        1.99426       -3.75615
C          6.44031        1.88349       -2.51286
C          5.77991        1.07026       -1.39447
C          6.64950        0.82248       -0.17600
O          7.15098        2.06892        0.48034
C          6.27503        2.74363        1.19530
O          5.10631        2.53904        1.38042
N          6.96408        3.86431        1.87751
C          6.55797        4.30181        3.10453
N          7.39879        5.29414        3.43813
C          8.33427        5.50775        2.44759
C          8.07634        4.61707        1.44480
C          8.72781        4.56048        0.10155
C          8.03832        5.52773       -0.87810
C          8.74653        5.52878       -2.24900
F          8.84884        4.29357       -2.78692
F          8.05196        6.30334       -3.12111
F          9.99501        6.04188       -2.13415
O          6.68521        5.12633       -0.99069
C          5.48550        3.78997        3.99082
C          5.88858        2.54369        4.82445
C          6.98229        2.84529        5.87329
N          6.95849        1.79008        6.87786
C          7.55666        2.14199        8.17169
C          7.51899        0.94361        9.10369
O          8.29679       -0.08871        8.48366
O          4.71701        2.11805        5.47442
H          6.03546        2.60530       -4.53066
H          4.58630        2.45970       -3.51800
H          5.34703        1.00698       -4.19333
H          6.66904        2.89151       -2.13979
H          7.40559        1.42353       -2.78427
H          5.51956        0.06290       -1.76504
H          4.82802        1.53031       -1.08921
H          7.58910        0.31912       -0.43376
H          6.12094        0.25285        0.59954
H          7.34441        5.79355        4.32141
H          9.08748        6.28330        2.51694
H          8.70866        3.54580       -0.30867
H          9.77862        4.85733        0.21620
H          8.12204        6.56382       -0.50029
H          6.21577        5.74418       -1.57618
H          4.60503        3.52338        3.39624
H          5.19409        4.59162        4.68597
H          6.25571        1.76122        4.12449
H          6.72581        3.78946        6.38504
H          7.97026        2.98484        5.38633
H          7.41741        0.94129        6.53754
H          6.97753        2.96519        8.61813
H          8.60663        2.48261        8.07028
H          6.47435        0.61653        9.24966
H          7.93982        1.23030       10.08292
H          8.23870       -0.89230        9.02166
H          5.05728        1.70993        6.30914
