65

C          5.82888       -3.65810        3.15110
O          5.95678       -2.62137        2.18816
C          6.96502       -2.88522        1.23333
C          6.99821       -1.70187        0.27790
O          8.00146       -1.97180       -0.70660
C          8.11901       -0.94802       -1.67310
C          9.03405       -1.46191       -2.77384
N          8.36783       -2.52671       -3.52975
C          8.95814       -3.22267       -4.50655
N          8.26922       -4.12995       -5.23462
C          6.81988       -4.34269       -5.24331
C          6.38079       -5.64767       -4.56059
C          6.67183       -5.75999       -3.04786
C          5.88292       -4.74683       -2.23758
O          5.98131       -3.54154       -2.40473
O          5.02284       -5.20214       -1.30638
N         10.26057       -3.01860       -4.79017
C         11.03984       -3.68992       -5.83477
C         12.53131       -3.59659       -5.51090
C         13.39852       -4.33114       -6.54579
P         14.94856       -4.92932       -5.78855
O         14.72512       -5.68460       -4.53648
O         15.67219       -5.83454       -6.89469
C         16.20955       -5.31434       -8.14567
C         17.30366       -6.25154       -8.61398
O         15.78687       -3.56038       -5.65800
C         16.89146       -3.47551       -4.69643
C         18.19205       -4.01158       -5.26792
H          5.03787       -3.35281        3.84570
H          6.76823       -3.80658        3.71424
H          5.54399       -4.61602        2.67689
H          6.74583       -3.81455        0.66982
H          7.95381       -3.01034        1.71787
H          7.23551       -0.77506        0.83078
H          6.01231       -1.57941       -0.20462
H          8.56078       -0.02975       -1.24125
H          7.12893       -0.67787       -2.09108
H          9.95515       -1.83873       -2.29339
H          9.29872       -0.63276       -3.44950
H          7.46364       -2.86852       -3.15286
H          8.80813       -4.64839       -5.91856
H          6.50020       -4.37345       -6.29474
H          6.33237       -3.47026       -4.79319
H          6.87071       -6.49630       -5.06186
H          5.30142       -5.76789       -4.74084
H          7.73990       -5.57594       -2.84892
H          6.46660       -6.78794       -2.71756
H          5.03003       -6.17525       -1.27359
H         10.78026       -2.43610       -4.14275
H         10.81337       -3.24866       -6.82001
H         10.77132       -4.76021       -5.86781
H         12.69872       -4.04943       -4.52042
H         12.84010       -2.54140       -5.44895
H         13.60614       -3.71040       -7.42891
H         12.89964       -5.24888       -6.89684
H         16.59206       -4.29627       -7.98004
H         15.38698       -5.26517       -8.87789
H         18.12528       -6.28973       -7.88720
H         17.70742       -5.90236       -9.57434
H         16.91496       -7.26865       -8.75225
H         16.59606       -4.01642       -3.78592
H         16.96506       -2.40503       -4.46605
H         18.13171       -5.09030       -5.46355
H         19.00166       -3.84796       -4.54268
H         18.46254       -3.49400       -6.19808
