79

C          6.19637       -3.43231       11.85976
C          7.18721       -4.06346       10.87843
C          6.86354       -3.75723        9.41227
C          7.86636       -4.35656        8.42116
C          7.53542       -4.04748        6.95768
C          8.56175       -4.60576        5.96668
C          8.22627       -4.29769        4.50402
C          9.27842       -4.82165        3.52043
C          8.92931       -4.53415        2.05652
C         10.01752       -4.94092        1.05948
N         10.42386       -6.36032        1.17720
C         11.62631       -6.78385        1.68161
N         11.69946       -8.09060        1.73158
N         10.49775       -8.51111        1.24474
C          9.70557       -7.48186        0.89316
C          8.31681       -7.58144        0.36108
C          8.00334       -6.90240       -0.99475
C          8.72264       -7.44735       -2.24348
C          7.99295       -6.91744       -3.49584
C          8.48727       -7.47804       -4.84393
C          7.62818       -7.01011       -5.98846
C          7.85538       -5.95376       -6.79084
C          9.05837       -5.05281       -6.68317
C          6.88327       -5.58793       -7.88109
C         10.22066       -7.10776       -2.27352
C         10.23277       -9.95702        1.14305
C         10.49279      -10.54889       -0.25493
C         11.95181      -10.38623       -0.69634
C         10.06297      -12.02257       -0.23698
H          6.45201       -3.67397       12.90014
H          5.17121       -3.78798       11.67871
H          6.18612       -2.33622       11.76681
H          7.20766       -5.15670       11.02520
H          8.20724       -3.71011       11.10591
H          6.82312       -2.66277        9.27031
H          5.84996       -4.12784        9.17784
H          7.91289       -5.45080        8.56267
H          8.87774       -3.97915        8.65379
H          7.46151       -2.95407        6.82443
H          6.53570       -4.44892        6.71563
H          8.64441       -5.69896        6.10077
H          9.55860       -4.19577        6.20611
H          8.11915       -3.20736        4.37331
H          7.24204       -4.73075        4.25331
H          9.40029       -5.90864        3.67369
H         10.25749       -4.36966        3.75940
H          8.77196       -3.45357        1.91127
H          7.97126       -5.00814        1.79014
H         10.93576       -4.36483        1.23564
H          9.71414       -4.76224        0.02094
H         12.41345       -6.10921        2.00229
H          7.64418       -7.16169        1.12675
H          8.06707       -8.64845        0.29216
H          8.15921       -5.81446       -0.92477
H          6.91923       -7.02887       -1.13291
H          8.61632       -8.54927       -2.24131
H          8.06867       -5.81609       -3.52398
H          6.91784       -7.14181       -3.39808
H          8.47138       -8.58059       -4.80217
H          9.53597       -7.19194       -5.01021
H          6.70679       -7.57960       -6.14982
H          9.76592       -5.35911       -5.90311
H          8.74468       -4.01873       -6.46594
H          9.60319       -5.01337       -7.63971
H          6.02748       -6.27367       -7.91268
H          7.37321       -5.60269       -8.86794
H          6.49976       -4.56411       -7.74170
H         10.37677       -6.01719       -2.28941
H         10.70159       -7.51769       -3.17028
H         10.77350       -7.51711       -1.41766
H          9.19427      -10.12629        1.45749
H         10.89166      -10.41568        1.89186
H          9.84631      -10.01310       -0.97148
H         12.63526      -10.90594       -0.00873
H         12.26470       -9.33452       -0.74446
H         12.09318      -10.81589       -1.69683
H         10.67262      -12.60717        0.46811
H         10.19286      -12.46803       -1.23160
H          9.00758      -12.14135        0.04664
