76

C          0.57990      -12.51197       -3.35666
C          2.10349      -12.48904       -3.49696
C          2.66857      -11.08281       -3.71941
C          4.19317      -11.04868       -3.86026
C          4.75598       -9.64450       -4.09874
C          6.28076       -9.61086       -4.24104
C          6.83977       -8.20888       -4.50048
C          8.36421       -8.17364       -4.64588
C          8.91628       -6.77579       -4.94030
C         10.44211       -6.73473       -5.07805
C         10.97322       -5.34169       -5.43494
C         12.50285       -5.21167       -5.44825
C         13.18436       -6.09611       -6.50737
C         14.68706       -5.84746       -6.48846
N         15.52607       -6.73177       -7.40943
C         15.27826       -6.61216       -8.95145
C         14.89824       -5.23813       -9.45842
C         16.09098       -4.27147       -9.46242
O         15.67985       -2.93732       -9.79566
C         15.15863       -2.20311       -8.75732
O         15.02033       -2.67054       -7.64085
C         14.80707       -0.80430       -9.19447
C         13.66979       -0.74817      -10.23783
C         12.33927       -1.29956       -9.72305
O         14.29099       -7.56445       -9.16816
C         14.73585       -8.74198       -8.48158
C         15.37532       -8.24048       -7.15930
C         16.70857       -8.88494       -6.81650
H          0.20368      -13.53256       -3.20276
H          0.09146      -12.10875       -4.25626
H          0.25049      -11.90295       -2.50175
H          2.40705      -13.13736       -4.33647
H          2.56434      -12.92617       -2.59506
H          2.36495      -10.43187       -2.88064
H          2.20843      -10.64518       -4.62290
H          4.49652      -11.70819       -4.69261
H          4.65261      -11.47691       -2.95201
H          4.45296       -8.98331       -3.26812
H          4.29668       -9.21787       -5.00788
H          6.58362      -10.28135       -5.06467
H          6.74190      -10.02559       -3.32741
H          6.53726       -7.53637       -3.67909
H          6.37769       -7.79683       -5.41468
H          8.66801       -8.86244       -5.45439
H          8.82799       -8.56438       -3.72309
H          8.60717       -6.08215       -4.13965
H          8.45755       -6.39178       -5.86803
H         10.74492       -7.46844       -5.84581
H         10.90223       -7.07095       -4.13145
H         10.57903       -4.61328       -4.70878
H         10.57182       -5.03516       -6.41625
H         12.90019       -5.47103       -4.45158
H         12.77728       -4.16015       -5.62888
H         12.76169       -5.87793       -7.49893
H         12.95800       -7.15230       -6.29792
H         15.09416       -6.03682       -5.48327
H         14.92482       -4.80727       -6.75911
H         16.50651       -6.47971       -7.23363
H         16.24954       -6.93858       -9.38184
H         14.07265       -4.82121       -8.87012
H         14.52920       -5.37648      -10.48495
H         16.81942       -4.54845      -10.23577
H         16.59590       -4.24847       -8.48294
H         15.71309       -0.34572       -9.61909
H         14.53000       -0.24825       -8.28940
H         13.98354       -1.28519      -11.14502
H         13.54671        0.30527      -10.52819
H         12.40970       -2.36695       -9.46272
H         11.55493       -1.20011      -10.48467
H         12.00380       -0.76193       -8.82467
H         15.48116       -9.27979       -9.09311
H         13.86414       -9.38509       -8.31772
H         14.67138       -8.33990       -6.32617
H         17.44848       -8.74256       -7.61794
H         16.56691       -9.96706       -6.69214
H         17.11958       -8.50071       -5.87307
