50

O          3.49314       -0.97014        2.24871
C          3.20699       -0.27270        1.28910
C          2.65914        1.09285        1.40495
C          2.29238        1.88582        0.30001
C          1.79269        3.17132        0.49587
C          1.65234        3.67770        1.79165
C          2.01220        2.89704        2.89738
C          2.51053        1.61423        2.70870
C          3.47326       -0.89373       -0.13841
C          4.91441       -0.76281       -0.47815
N          5.86959       -1.57486       -0.05639
C          5.66295       -2.78993        0.75170
C          5.51541       -4.06233       -0.06804
C          4.96848       -4.12461       -1.43224
O          6.38903       -4.23146       -1.19161
C          7.21090       -1.28546       -0.61844
C          7.23488        0.19484       -1.00033
S          5.46158        0.54861       -1.44069
C          8.21321        0.57281       -2.11949
C          9.64908        0.43793       -1.63952
C         10.15338        1.42801       -0.78069
C         11.44995        1.36020       -0.27464
C         12.26635        0.28684       -0.63559
C         11.77963       -0.69229       -1.50137
C         10.47512       -0.64391       -2.01901
C         10.02539       -1.72537       -2.97370
H          2.38232        1.51257       -0.72004
H          1.50474        3.77900       -0.36173
H          1.25893        4.68380        1.94087
H          1.90083        3.29388        3.90655
H          2.79468        0.99069        3.55604
H          2.87207       -0.40701       -0.91305
H          3.17325       -1.94595       -0.07192
H          4.79087       -2.64007        1.40103
H          6.53852       -2.88018        1.41085
H          5.41155       -4.94979        0.56866
H          4.65817       -3.21391       -1.95482
H          4.48391       -5.04441       -1.77000
H          7.35950       -1.94766       -1.48566
H          7.97935       -1.52001        0.12870
H          7.42611        0.81805       -0.11318
H          8.02571        1.61729       -2.41238
H          8.01787       -0.04838       -3.00416
H          9.52214        2.28174       -0.51920
H         11.82362        2.14563        0.38244
H         13.28655        0.21973       -0.25688
H         12.43058       -1.51698       -1.79752
H         10.87597       -2.35095       -3.26885
H          9.58868       -1.31339       -3.89494
H          9.27677       -2.40021       -2.53036
