77

C          0.70239        0.58227      -13.10155
C          2.22891        0.47176      -13.11066
C          2.80356       -0.11680      -11.81732
C          4.33175       -0.22643      -11.81799
C          4.90633       -0.81239      -10.52411
C          6.43506       -0.92018      -10.52602
C          7.00688       -1.50280       -9.22916
C          8.53702       -1.60049       -9.22691
C          9.10131       -2.16504       -7.91807
C         10.63192       -2.23495       -7.91145
C         11.17614       -2.76408       -6.56020
C         12.66513       -2.84612       -6.53377
N         13.44880       -1.78960       -6.59872
C         14.89494       -2.02121       -6.80143
C         15.14735       -3.45400       -6.26694
S         13.51094       -4.32440       -6.46127
C         15.60899       -3.51386       -4.80857
C         15.86969       -4.92572       -4.27506
C         16.30922       -4.93208       -2.80616
C         16.54143       -6.34023       -2.24892
C         16.97829       -6.34869       -0.78022
C         17.20478       -7.75681       -0.21790
C         17.65571       -7.75762        1.24483
C         15.27973       -1.81851       -8.27607
C         14.94035       -0.43891       -8.87781
C         15.57395        0.72365       -8.09895
C         15.35871       -0.40625      -10.35419
H          0.32408        1.00694      -14.04152
H          0.35234        1.22706      -12.28169
H          0.23086       -0.40313      -12.97002
H          2.66961        1.46864      -13.28192
H          2.54863       -0.14938      -13.96461
H          2.36529       -1.11606      -11.64627
H          2.48174        0.50279      -10.96149
H          4.76839        0.77316      -11.99086
H          4.65232       -0.84701      -12.67336
H          4.47047       -1.81198      -10.35087
H          4.58593       -0.19170       -9.66886
H          6.87068        0.07958      -10.69990
H          6.75657       -1.54249      -11.37951
H          6.57703       -2.50480       -9.05689
H          6.68088       -0.88273       -8.37583
H          8.96615       -0.59920       -9.40730
H          8.86652       -2.23034      -10.07123
H          8.68849       -3.17265       -7.74129
H          8.76168       -1.54229       -7.07245
H         11.04730       -1.23274       -8.11121
H         10.98760       -2.88864       -8.72374
H         10.75804       -3.75610       -6.34256
H         10.85417       -2.09723       -5.74228
H         13.05748       -0.85187       -6.67552
H         15.43885       -1.30913       -6.16338
H         15.85058       -3.98387       -6.92471
H         14.87257       -2.99629       -4.17006
H         16.53899       -2.92123       -4.74995
H         16.63854       -5.41609       -4.89636
H         14.95560       -5.53707       -4.37651
H         15.54467       -4.41916       -2.19687
H         17.23245       -4.33679       -2.69892
H         17.30366       -6.85423       -2.86003
H         15.61573       -6.93229       -2.35823
H         16.21834       -5.83022       -0.16917
H         17.90583       -5.75951       -0.67156
H         17.95572       -8.27714       -0.83608
H         16.27414       -8.34074       -0.31811
H         18.60435       -7.21519        1.37116
H         17.80681       -8.77980        1.61698
H         16.91013       -7.27520        1.89420
H         14.80043       -2.60712       -8.87986
H         16.36785       -1.98694       -8.34487
H         13.84052       -0.31595       -8.85381
H         16.67001        0.62700       -8.06783
H         15.21960        0.79734       -7.05919
H         15.34276        1.68232       -8.58133
H         16.44955       -0.50882      -10.45694
H         15.06957        0.54368      -10.82254
H         14.88965       -1.21884      -10.92654
