57

O          2.55907       -1.04790       -1.91232
C          3.81200       -0.37221       -2.05345
C          3.56957        1.01877       -2.64430
C          2.60114        1.90438       -1.81693
C          1.11117        1.52466       -1.82482
C          0.57685        1.28281       -3.24619
O         -0.81769        1.05726       -3.29970
C         -1.54234        2.20440       -2.83345
C         -1.19847        2.44858       -1.36656
N          0.29017        2.66123       -1.19388
C          0.62851        2.93855        0.27440
C         -0.04337        4.19222        0.76707
C          0.46020        5.42230        0.31172
C         -0.12618        6.62726        0.69120
C         -1.22241        6.60549        1.55620
C         -1.71085        5.38896        2.03324
C         -1.14324        4.16232        1.65468
C         -1.71199        2.87939        2.21320
C         -3.02015        2.04054       -3.08919
C         -3.61564        2.84746       -4.06575
C         -4.97154        2.74487       -4.37777
C         -5.75077        1.80782       -3.70108
C         -5.18696        0.98481       -2.72303
C         -3.82608        1.09500       -2.40880
O         -3.20601        0.32897       -1.45737
C         -3.97632       -0.66869       -0.77847
O          4.81033        1.70006       -2.79691
H          2.72627       -1.99596       -1.80300
H          4.49478       -0.91601       -2.72503
H          4.31365       -0.26298       -1.06907
H          3.19027        0.90798       -3.67109
H          2.71635        2.92219       -2.22892
H          2.98510        1.92888       -0.78518
H          0.91190        0.63758       -1.20963
H          1.05034        0.37456       -3.63594
H          0.85684        2.13516       -3.90248
H         -1.20972        3.08800       -3.42037
H         -1.47373        1.57829       -0.76177
H         -1.69705        3.34645       -0.98192
H          0.53203        3.52321       -1.70897
H          1.71756        3.04069        0.32486
H          0.33451        2.03770        0.82444
H          1.34251        5.43954       -0.33593
H          0.28010        7.57227        0.33188
H         -1.68809        7.53883        1.87316
H         -2.55449        5.38482        2.72555
H         -2.43076        3.09723        3.01162
H         -0.93622        2.23087        2.64518
H         -2.24717        2.29273        1.45127
H         -2.99207        3.56887       -4.59832
H         -5.40931        3.38335       -5.14389
H         -6.81196        1.70720       -3.93086
H         -5.81476        0.25900       -2.20999
H         -4.79790       -0.21927       -0.19931
H         -3.27807       -1.16524       -0.09654
H         -4.38113       -1.40916       -1.48460
H          5.30356        1.66099       -1.95949
