115

C         14.70529        9.49520       11.72885
C         14.77532        8.62810       10.47058
C         15.17049        9.41340        9.21643
C         15.25279        8.55172        7.95397
C         15.65037        9.33229        6.69786
C         15.75375        8.45748        5.44578
C         16.16338        9.22313        4.18432
C         16.29356        8.32501        2.95163
C         16.72260        9.06160        1.67935
C         16.86533        8.12878        0.47387
C         17.30914        8.82384       -0.81643
C         17.42405        7.85440       -1.99552
C         17.87253        8.49992       -3.30997
C         17.90181        7.49727       -4.46647
C         18.36571        8.07832       -5.80584
C         18.24651        7.05524       -6.93930
C         18.72185        7.55953       -8.30773
C         18.43842        6.50214       -9.38251
N         18.94450        6.79687      -10.74436
C         18.19054        7.48583      -11.61890
N         17.14202        8.20405      -11.16364
N         18.43722        7.51078      -12.94956
C         18.76763        6.34895      -13.81329
C         17.78026        5.18504      -13.67520
C         16.32736        5.51763      -14.03515
C         15.35884        4.38410      -13.67975
C         13.88326        4.73189      -13.89936
C         12.93302        3.64180      -13.39345
C         11.44878        3.99212      -13.53621
C         10.52272        2.95125      -12.89943
C          9.03385        3.28924      -13.01799
C          8.12370        2.26915      -12.32767
C          6.63181        2.59557      -12.44186
C          5.72913        1.58154      -11.73338
C          4.23613        1.90218      -11.84465
C          3.33532        0.88666      -11.13501
C          1.84527        1.21192      -11.25799
C         20.35934        6.49044      -11.00720
C         20.64917        4.98987      -11.13335
F         22.00576        4.85656      -11.41091
H         14.41657        8.90621       12.61033
H         13.96898       10.30453       11.61351
H         15.67773        9.96243       11.94433
H         13.79914        8.14309       10.30086
H         15.49693        7.80837       10.62617
H         16.14510        9.90386        9.38748
H         14.44539       10.23072        9.05588
H         14.27870        8.05995        7.78390
H         15.97807        7.73529        8.11830
H         16.61840        9.83434        6.87193
H         14.91811       10.13979        6.52166
H         14.78521        7.95705        5.26938
H         16.48196        7.64775        5.62939
H         17.12399        9.73678        4.36504
H         15.42636       10.02029        3.98297
H         15.33049        7.81638        2.76873
H         17.02147        7.52250        3.16559
H         17.68185        9.57755        1.86024
H         15.98988        9.85429        1.44721
H         15.90216        7.61841        0.29602
H         17.58744        7.33021        0.71948
H         18.28032        9.32208       -0.65128
H         16.59363        9.62597       -1.06855
H         16.44745        7.36266       -2.15164
H         18.12854        7.04584       -1.73264
H         18.87236        8.94896       -3.17992
H         17.19333        9.33253       -3.56350
H         16.89109        7.07010       -4.59178
H         18.55524        6.64938       -4.19682
H         19.40938        8.42559       -5.72178
H         17.76255        8.96993       -6.05127
H         17.19330        6.73286       -7.01726
H         18.82005        6.15010       -6.67551
H         19.79873        7.78897       -8.27400
H         18.21777        8.51456       -8.54258
H         17.35860        6.31156       -9.46317
H         18.89942        5.55233       -9.07905
H         17.09633        8.51734      -10.20092
H         16.39395        8.47704      -11.78882
H         17.97852        8.27780      -13.43168
H         19.79713        6.02027      -13.62080
H         18.76030        6.74749      -14.83665
H         17.81813        4.79653      -12.64307
H         18.14864        4.36731      -14.31485
H         16.25445        5.75810      -15.10915
H         16.00521        6.42741      -13.49653
H         15.50633        4.11167      -12.61922
H         15.61840        3.48313      -14.26054
H         13.69974        4.92199      -14.97047
H         13.65220        5.67875      -13.37818
H         13.15343        3.44396      -12.32914
H         13.14064        2.69716      -13.92465
H         11.19713        4.10908      -14.60430
H         11.26060        4.97588      -13.07030
H         10.78516        2.84207      -11.83207
H         10.71045        1.96488      -13.35831
H          8.75879        3.36438      -14.08442
H          8.85138        4.28954      -12.58682
H          8.40009        2.20063      -11.26055
H          8.31075        1.26736      -12.75260
H          6.35134        2.65182      -13.50828
H          6.44573        3.60183      -12.02675
H          6.01117        1.52641      -10.66704
H          5.91698        0.57533      -12.14758
H          3.95257        1.95640      -12.91058
H          4.04614        2.90824      -11.43036
H          3.61618        0.83643      -10.06932
H          3.52928       -0.11825      -11.54652
H          1.61603        2.19737      -10.82584
H          1.22462        0.46837      -10.73940
H          1.52922        1.23270      -12.31176
H         20.95412        6.89854      -10.17590
H         20.67634        7.01161      -11.91778
H         20.07902        4.52496      -11.95125
H         20.43849        4.44672      -10.19942
