94

C         13.79768       -2.09775       -8.50266
C         12.98359       -0.88625       -8.04355
C         13.30413       -0.45417       -6.60933
C         12.50387        0.76427       -6.13947
C         12.84731        1.20564       -4.71362
C         12.07352        2.44280       -4.24739
C         12.46566        2.90147       -2.83924
C         11.73615        4.17058       -2.38104
C         12.21662        4.62901       -1.01525
O         11.52508        5.83458       -0.63328
C         12.01108        6.39416        0.57759
C         13.18237        7.35122        0.26686
O         13.99815        7.63580        1.40333
C         13.35503        8.54414        2.28282
C         13.35366        9.92853        1.65513
N         12.69827        9.97250        0.28003
C         12.73116        8.62982       -0.49565
C         11.19379       10.40716        0.41955
O         10.42251        9.45921        1.04267
C          9.99070        9.68477        2.42676
C          9.40495       11.05387        2.73475
C          8.14938       11.45313        1.95348
C          7.62381       12.81960        2.40624
C          6.31528       13.26040        1.74488
C          5.86100       14.64261        2.22566
C          4.52225       15.10830        1.64693
C          4.11071       16.49748        2.14481
C          2.76653       16.98475        1.59617
C          2.38654       18.37850        2.10140
C         13.42538       11.03003       -0.61580
C         13.32584       12.47293       -0.11402
O         12.02953       13.01663       -0.34337
C         14.91640       10.68314       -0.81843
C         15.39361       11.02992       -2.23342
H         13.54878       -2.38425       -9.53363
H         13.60904       -2.97062       -7.86009
H         14.87725       -1.88856       -8.46655
H         11.90691       -1.11260       -8.12228
H         13.16568       -0.03871       -8.72586
H         14.38347       -0.23324       -6.53048
H         13.11855       -1.30031       -5.92450
H         11.42465        0.54089       -6.20458
H         12.68168        1.60518       -6.83292
H         13.93050        1.41172       -4.65038
H         12.65737        0.37102       -4.01644
H         10.99021        2.23473       -4.27885
H         12.24567        3.26911       -4.95928
H         13.55567        3.07721       -2.81186
H         12.27179        2.08532       -2.12227
H         10.64952        3.99518       -2.34335
H         11.90164        4.98070       -3.11027
H         13.31034        4.80311       -1.04127
H         12.02705        3.85308       -0.24981
H         12.37180        5.61645        1.27404
H         11.16522        6.92094        1.04305
H         13.85108        6.80896       -0.41773
H         13.95561        8.58402        3.20187
H         12.34464        8.20000        2.55144
H         14.39609       10.23907        1.53001
H         12.84116       10.66532        2.28601
H         13.39505        8.79632       -1.34660
H         11.71957        8.46812       -0.88619
H         10.86061       10.52518       -0.62158
H         11.20734       11.38184        0.91817
H         10.82812        9.46846        3.11024
H          9.23413        8.90143        2.56706
H         10.17291       11.84200        2.64202
H          9.16752       11.02677        3.81239
H          7.37164       10.68446        2.09918
H          8.35793       11.47365        0.87066
H          8.39942       13.58356        2.21782
H          7.48092       12.80234        3.50089
H          5.52803       12.51748        1.95995
H          6.43522       13.27025        0.64756
H          6.64066       15.38484        1.97834
H          5.79244       14.63489        3.32774
H          3.73691       14.37754        1.90745
H          4.57829       15.11510        0.54432
H          4.89648       17.22645        1.87789
H          4.06952       16.48992        3.24845
H          1.97899       16.26347        1.87194
H          2.80318       16.98776        0.49375
H          2.30955       18.39580        3.19882
H          1.41989       18.70605        1.69547
H          3.14028       19.12581        1.81178
H         12.88616       10.96137       -1.57279
H         14.08747       13.03344       -0.68080
H         13.61427       12.53267        0.95240
H         12.07571       13.98224       -0.26340
H         15.10890        9.61987       -0.61958
H         15.51887       11.23664       -0.08074
H         14.88092       10.41818       -2.98903
H         16.47127       10.84898       -2.32735
H         15.21412       12.08542       -2.48139
