83

C          1.56643       -0.16159       -0.27665
C          3.01209        0.24439        0.01804
C          3.16338        1.06361        1.30611
C          4.62007        1.43341        1.60723
C          4.78989        2.19353        2.91301
O          6.19194        2.43770        3.10406
C          6.50457        3.07384        4.32436
C          8.03551        3.10753        4.36576
C          8.66328        3.78501        5.58299
C          8.36405        3.06145        6.90248
C          9.00814        3.58778        8.18681
O          8.70256        2.65650        9.19787
C          9.25243        3.02170       10.47091
C          8.80583        1.97973       11.49313
O          9.31802        2.27921       12.78847
O          8.36062        5.16055        5.57164
C          9.48746        5.92640        6.01166
C         10.69816        5.23984        5.35597
N         10.23094        3.78811        5.34407
C         12.03048        5.35821        6.09054
C         12.39330        6.79859        6.48125
C         13.57423        6.80790        7.47343
S         13.47591        8.09670        8.74690
C         12.28091        7.38724        9.87034
S         11.50856        5.92261        9.62791
N         12.07276        8.16504       10.96687
C         12.68981        9.46556       11.11830
C         13.74249        9.62480       12.02572
C         14.31826       10.88485       12.19051
C         13.84300       11.97680       11.45786
C         12.78361       11.81304       10.56138
C         12.19946       10.55702       10.39155
C         11.22698        7.72235       12.05521
C         10.01701        8.37934       12.28856
C          9.21019        7.97231       13.35340
C          9.61354        6.91899       14.17755
C         10.83344        6.27643       13.94422
C         11.64744        6.67906       12.88599
H          1.49847       -0.75376       -1.19919
H          0.91823        0.71847       -0.39905
H          1.14813       -0.77031        0.53857
H          3.41497        0.82364       -0.82965
H          3.64059       -0.65918        0.09146
H          2.74470        0.48912        2.15096
H          2.55296        1.98010        1.22953
H          5.03255        2.04208        0.78643
H          5.23306        0.51861        1.65784
H          4.40003        1.60323        3.76549
H          4.24165        3.15522        2.89232
H          6.09371        2.50287        5.18049
H          6.08837        4.09869        4.37171
H          8.37766        3.63597        3.46096
H          8.39324        2.06696        4.30618
H          8.63432        1.99844        6.78875
H          7.27305        3.08301        7.03073
H          8.62448        4.59150        8.44971
H         10.11429        3.69062        8.09428
H          8.91000        4.02745       10.77231
H         10.35838        3.05288       10.40796
H          9.09948        0.97091       11.15417
H          7.71095        1.99463       11.58416
H         10.26361        2.06513       12.80531
H          9.58089        5.94466        7.11029
H          9.34516        6.94934        5.64738
H         10.76850        5.54512        4.30287
H         10.69982        3.26962        6.09903
H         10.44313        3.32411        4.45435
H         12.83326        4.90090        5.49091
H         11.95123        4.79446        7.03787
H         11.52787        7.26225        6.97241
H         12.62876        7.40633        5.59503
H         14.53128        7.00730        6.97103
H         13.65156        5.84717        8.00118
H         14.10110        8.76636       12.59388
H         15.14127       11.01411       12.89374
H         14.29778       12.95893       11.58954
H         12.40569       12.66477        9.99546
H         11.37058       10.41417        9.69789
H          9.71066        9.20062       11.64045
H          8.26405        8.48163       13.53789
H          8.97942        6.60053       15.00480
H         11.15236        5.45917       14.59149
H         12.59799        6.18277       12.69134
