55

C          2.18861        0.03755       -0.64288
C          2.66853       -1.19337       -1.41552
C          3.42905       -2.18813       -0.52931
C          3.88552       -3.45270       -1.23860
O          4.76378       -3.14824       -2.38625
C          6.06129       -2.98907       -2.11210
O          6.63067       -3.10887       -1.05298
N          6.70120       -2.65160       -3.33836
C          8.04407       -2.50854       -3.55191
N          8.84905       -1.89894       -2.69959
C          8.54745       -0.97909       -1.61111
C          9.90842       -0.47648       -1.12410
O         10.95107       -0.87227       -1.62127
O          9.77125        0.37564       -0.11917
C         11.00859        0.90326        0.48871
C         11.47409        2.17235       -0.20779
C         12.71454        2.75144        0.48177
N          8.52934       -2.91801       -4.75070
C          8.13308       -4.16859       -5.39013
C          8.39147       -5.37264       -4.46394
O          8.68695       -5.24258       -3.29299
O          8.22860       -6.50983       -5.13751
C          8.40906       -7.76377       -4.38237
C          7.11704       -8.19746       -3.70669
C          7.29035       -9.55011       -3.00646
H          1.65732        0.73818       -1.30012
H          3.03134        0.58080       -0.18992
H          1.50215       -0.24158        0.16919
H          3.31427       -0.87548       -2.25013
H          1.80606       -1.70259       -1.87718
H          2.78260       -2.51925        0.30129
H          4.29577       -1.69963       -0.05500
H          3.04928       -3.98590       -1.70730
H          4.43018       -4.12929       -0.56832
H          6.11563       -2.74888       -4.16450
H          9.87058       -2.00299       -2.80393
H          8.02635       -1.49101       -0.78940
H          7.92148       -0.14094       -1.95121
H         11.76849        0.11166        0.45352
H         10.71807        1.09047        1.52981
H         10.65507        2.90763       -0.20064
H         11.70167        1.94590       -1.26056
H         12.51045        3.00934        1.53073
H         13.04598        3.66572       -0.02547
H         13.55271        2.04053        0.46688
H          9.47374       -2.60269       -4.95534
H          8.70118       -4.27175       -6.32209
H          7.07272       -4.16148       -5.68304
H          9.21969       -7.61084       -3.65765
H          8.72962       -8.47915       -5.14952
H          6.32062       -8.26023       -4.46403
H          6.81605       -7.43222       -2.97484
H          7.57169      -10.33979       -3.71730
H          6.35446       -9.85744       -2.52387
H          8.06572       -9.50459       -2.22894
