71

C          2.89744        2.08894       -1.24756
C          2.35079        1.50323        0.05847
C          3.28412        0.49869        0.75540
C          4.70846        1.00108        1.06806
P          4.80133        2.48141        2.10751
C          4.08071        2.22127        3.77313
O          4.99504        1.35493        4.39679
C          4.59448        0.70052        5.57457
C          3.39115        1.00828        6.21048
C          3.01043        0.33704        7.38188
C          1.71509        0.66808        8.07652
C          3.87816       -0.63905        7.88518
C          5.08240       -0.92061        7.24138
C          5.48624       -0.26709        6.06920
C          6.82387       -0.61789        5.43185
C          6.69754       -1.20217        4.01201
C          7.83242        0.54604        5.48673
C          6.55382        3.10281        2.18155
O          7.01984        3.31583        0.88149
C          6.83443        4.66036        0.34415
C          7.68080        5.72404        1.03111
C          9.18271        5.42092        1.04474
C         10.01944        6.54865        1.65745
C         11.51111        6.21052        1.74684
C         12.36374        7.33491        2.34236
C         13.84790        6.97182        2.46981
C         14.70209        8.10309        3.04720
H          2.14146        2.71252       -1.74122
H          3.18136        1.29402       -1.95246
H          3.78452        2.72352       -1.09472
H          1.40399        0.98180       -0.14463
H          2.07883        2.31961        0.75117
H          3.41137       -0.38582        0.11209
H          2.81438        0.12893        1.67972
H          5.27146        1.26156        0.15801
H          5.29382        0.23380        1.59842
H          4.03058        3.50813        1.51616
H          3.07068        1.78653        3.65221
H          3.97904        3.20099        4.27823
H          2.73130        1.78441        5.81998
H          1.13020        1.40949        7.51776
H          1.90018        1.07407        9.08169
H          1.09303       -0.22936        8.20214
H          3.61275       -1.18207        8.79345
H          5.74476       -1.68213        7.65822
H          7.23711       -1.42194        6.06179
H          6.40099       -0.43202        3.28631
H          5.95342       -2.00913        3.97600
H          7.66146       -1.61347        3.68210
H          7.49883        1.40226        4.88312
H          8.81162        0.22378        5.10559
H          7.96998        0.90060        6.51645
H          7.14775        2.30756        2.65718
H          6.57608        3.99104        2.83570
H          5.76172        4.92798        0.36909
H          7.12630        4.54538       -0.70823
H          7.32107        5.90806        2.05926
H          7.48717        6.66726        0.49169
H          9.52355        5.22617        0.01329
H          9.36589        4.48651        1.60098
H          9.63796        6.78242        2.66734
H          9.88373        7.46910        1.06369
H         11.88932        5.95966        0.74046
H         11.63895        5.29608        2.35286
H         11.96910        7.60691        3.33741
H         12.26106        8.24104        1.72000
H         14.23704        6.68443        1.47843
H         13.94602        6.07437        3.10378
H         14.66641        8.99685        2.40700
H         15.75500        7.80464        3.13977
H         14.35169        8.39957        4.04698
