46

C          1.94703       -0.18389        0.82959
C          2.38396        0.42161       -0.50674
N          2.79288       -0.58081       -1.50121
C          1.96921       -1.17463       -2.40307
O          2.37158       -2.03657       -3.20122
C          0.48871       -0.76169       -2.40216
C         -0.32441       -1.22444       -3.62591
C         -1.77648       -0.70680       -3.50240
C         -2.71235       -0.99303       -4.67749
S          0.45360       -0.47045       -5.16953
C          0.79664       -1.98684       -5.81665
N          0.42545       -3.04205       -5.13663
C         -0.27152       -2.76145       -3.86595
C          0.79074       -4.38507       -5.50514
C          2.14364       -4.68422       -5.69673
C          2.49957       -5.98112       -6.07036
C          1.51616       -6.96042       -6.23259
C          0.16936       -6.64898       -6.01996
C         -0.20474       -5.35668       -5.65211
C          4.20573       -1.00492       -1.47541
C          5.09011       -0.16245       -2.39557
H          1.70008        0.61301        1.54348
H          2.74553       -0.79463        1.27164
H          1.06028       -0.82185        0.71449
H          3.24399        1.08982       -0.35697
H          1.58780        1.05272       -0.92294
H          0.38260        0.32893       -2.30891
H          0.00108       -1.17787       -1.50344
H         -1.74198        0.37765       -3.31344
H         -2.18626       -1.15275       -2.57971
H         -2.35917       -0.52340       -5.60566
H         -3.70985       -0.59059       -4.46314
H         -2.83730       -2.06799       -4.87171
H          1.31410       -2.10149       -6.76968
H          0.28274       -3.27328       -3.07093
H         -1.28595       -3.18166       -3.92858
H          2.89958       -3.91964       -5.51462
H          3.55045       -6.22788       -6.22067
H          1.79912       -7.97268       -6.52130
H         -0.59667       -7.41313       -6.15081
H         -1.25591       -5.10465       -5.50973
H          4.23934       -2.05986       -1.77280
H          4.54844       -0.93668       -0.43349
H          4.77381       -0.26781       -3.44127
H          6.13467       -0.49236       -2.31942
H          5.05705        0.90285       -2.12737
