37

Br         2.63345        0.38413       -3.37021
C          2.57659        1.66632       -1.86820
C          3.56448        1.32706       -0.76227
C          5.02262        1.17043       -1.20669
N          5.46934        2.30018       -2.03483
C          5.81542        2.27798       -3.31417
N          6.07679        3.55469       -3.66995
C          5.85447        4.33377       -2.54090
N          5.48686        3.56712       -1.53438
C          5.91456        5.81840       -2.45810
C          4.79807        6.51222       -3.27896
O          3.62470        5.70666       -3.10540
C          4.59412        7.95256       -2.82710
C          6.57754        3.97827       -4.97441
C          7.80058        3.14337       -5.39631
O          8.13757        2.11411       -4.85104
O          8.38013        3.71787       -6.44935
C          9.52635        3.00802       -7.01235
H          1.54652        1.63244       -1.50248
H          2.76353        2.64774       -2.31881
H          3.28101        0.38903       -0.26337
H          3.49549        2.12664       -0.00695
H          5.15674        0.27057       -1.81969
H          5.69359        1.11244       -0.34010
H          5.87733        1.40300       -3.94914
H          6.89733        6.19717       -2.77751
H          5.79810        6.06400       -1.39406
H          5.08702        6.50875       -4.34911
H          2.86032        6.20000       -3.44331
H          4.26716        7.98454       -1.77847
H          3.83047        8.44567       -3.44534
H          5.52005        8.53610       -2.92488
H          6.84503        5.03868       -4.92547
H          5.78913        3.86959       -5.73349
H          9.82108        3.59730       -7.88373
H          9.23052        1.99375       -7.30363
H         10.33513        2.96562       -6.27403
