67

C          5.48331        3.92811       -1.46124
C          5.20314        2.42424       -1.47743
C          6.33035        1.60794       -2.11911
C          6.06096        0.10038       -2.13001
C          7.18474       -0.71930       -2.77315
C          6.91407       -2.22783       -2.74976
C          8.02134       -3.05175       -3.42441
C          7.72280       -4.53790       -3.32235
O          8.70640       -5.35317       -4.07269
C          9.81246       -5.70878       -3.42483
O         10.12561       -5.41261       -2.28707
C         10.68989       -6.60454       -4.31457
P         12.44117       -6.10511       -4.23213
C         13.09022       -6.35741       -2.54666
C         14.58214       -6.05824       -2.28875
C         15.09293       -4.65876       -2.62941
C         14.38993       -3.44927       -1.93240
Br        14.39209       -3.59786        0.00986
F         14.96100       -2.29452       -2.30596
F         13.08879       -3.40998       -2.36350
Br        17.00748       -4.57996       -2.28371
F         14.89732       -4.44689       -4.00322
C         13.41028       -6.97702       -5.50230
C         12.97585       -6.71913       -6.96368
C         13.19256       -5.29251       -7.48943
C         14.67293       -4.90627       -7.67477
N         14.83758       -3.56070       -8.18758
C         14.74942       -3.19583       -9.51696
C         14.84507       -1.81929       -9.59145
C         14.98713       -1.32899       -8.26276
C         14.97425       -2.42177       -7.41638
H          4.66262        4.48540       -0.99008
H          5.60958        4.32111       -2.48107
H          6.40346        4.15567       -0.90285
H          4.26182        2.22903       -2.01829
H          5.04034        2.06778       -0.44648
H          7.27389        1.80682       -1.58091
H          6.49103        1.95989       -3.15336
H          5.11569       -0.09730       -2.66503
H          5.90247       -0.24813       -1.09444
H          8.13513       -0.51142       -2.25140
H          7.32880       -0.38834       -3.81620
H          5.95144       -2.43339       -3.24848
H          6.79530       -2.55867       -1.70368
H          8.98918       -2.83676       -2.94483
H          8.10507       -2.76723       -4.48540
H          6.77090       -4.79735       -3.80116
H          7.72360       -4.88518       -2.28099
H         10.36419       -6.57610       -5.36291
H         10.60924       -7.64329       -3.95750
H         12.45143       -4.72493       -4.51474
H         12.90922       -7.42041       -2.31951
H         12.41470       -5.78042       -1.89851
H         15.22016       -6.75744       -2.84609
H         14.77449       -6.24150       -1.22362
H         13.33414       -8.04850       -5.25559
H         14.45750       -6.68371       -5.33592
H         11.92167       -7.00699       -7.09181
H         13.54742       -7.42758       -7.58378
H         12.70730       -4.54349       -6.84231
H         12.69033       -5.20760       -8.46377
H         15.15256       -5.61018       -8.37319
H         15.22602       -4.96857       -6.72539
H         14.64749       -3.94641      -10.29482
H         14.83459       -1.23281      -10.50454
H         15.10842       -0.29348       -7.96144
H         15.08236       -2.49089       -6.33820
