48

C          4.30492        0.15467        1.44240
C          3.41536       -1.02770        1.11082
O          4.10128       -1.97344        0.21300
C          3.99590       -1.74464       -1.09953
O          3.36403       -0.85397       -1.63194
C          4.82333       -2.79112       -1.88005
N          4.51902       -2.69297       -3.30760
C          4.93257       -1.56399       -4.17305
C          4.66753       -2.11155       -5.59249
N          3.74687       -3.21885       -5.30866
C          3.75660       -3.54514       -4.00582
N          3.14195       -4.64948       -3.46540
C          2.90675       -5.81609       -4.35169
C          4.23612       -6.44203       -4.79393
C          3.97052       -7.68415       -5.65331
S          5.56183       -8.35394       -6.21204
C          5.05184       -9.45750       -7.50727
S          3.51609       -9.61610       -8.06255
N          6.13810      -10.17122       -8.02234
C          7.44622      -10.24782       -7.51854
N          8.20679      -11.00519       -8.25782
C          7.39407      -11.45537       -9.29528
C          6.12556      -10.96810       -9.17303
I          1.47161       -4.16779       -2.27521
C          6.32818       -2.64494       -1.60592
H          3.79687        0.78957        2.18140
H          4.50614        0.76807        0.55492
H          5.25748       -0.17419        1.87809
H          2.48070       -0.71812        0.62666
H          3.19203       -1.63617        1.99465
H          4.50009       -3.79228       -1.56203
H          5.98883       -1.32536       -4.01056
H          4.32150       -0.68389       -3.93036
H          5.57931       -2.48599       -6.08280
H          4.19354       -1.36767       -6.24272
H          3.23085       -3.73297       -6.01188
H          2.26364       -5.56380       -5.21578
H          2.34195       -6.53986       -3.75066
H          4.81746       -6.70165       -3.89665
H          4.83844       -5.72338       -5.37080
H          3.37916       -7.45635       -6.55268
H          3.43368       -8.46036       -5.08962
H          7.74209       -9.75090       -6.59926
H          7.78428      -12.10972      -10.06840
H          5.22347      -11.08479       -9.75906
H          6.68779       -1.62802       -1.81162
H          6.90025       -3.35718       -2.21414
H          6.51980       -2.85820       -0.54872
