59

C          1.42475       -4.23412       -1.37131
C          2.84531       -3.76879       -1.04318
C          3.28089       -2.54883       -1.86186
C          4.69508       -2.05810       -1.53376
C          5.09110       -0.81802       -2.34493
C          6.48634       -0.25495       -1.99384
C          6.52081        0.42090       -0.60407
C          5.86507        1.79634       -0.60357
N          6.50874        2.67983       -1.64384
C          6.46421        2.12920       -3.06745
C          7.11544        0.72601       -3.02089
C          7.28869        0.15433       -4.43575
O          7.87443        1.14512       -5.28678
C          9.19754        0.84667       -5.73854
O          9.27077       -0.27573       -6.56142
C          8.61455       -0.12862       -7.83862
C          8.72167       -1.46315       -8.55383
O          8.03261       -2.50235       -7.86092
C          5.06822        2.25368       -3.69949
C          4.69643        3.63385       -4.27943
C          4.00111        4.63027       -3.32131
C          4.83776        5.18621       -2.26592
C          5.53689        5.66056       -1.39337
H          1.14060       -5.10667       -0.76846
H          1.33019       -4.51741       -2.42971
H          0.68813       -3.44131       -1.17324
H          3.55519       -4.59473       -1.21580
H          2.91637       -3.52854        0.03126
H          2.56344       -1.72551       -1.69324
H          3.21648       -2.78815       -2.93766
H          5.42314       -2.86520       -1.72278
H          4.75313       -1.84569       -0.45249
H          4.31259       -0.04914       -2.20597
H          5.05529       -1.07731       -3.41406
H          7.17297       -1.11709       -1.94385
H          7.56508        0.51867       -0.26235
H          6.01460       -0.19881        0.14816
H          5.97171        2.30986        0.36055
H          4.79506        1.75290       -0.84225
H          7.49947        2.80002       -1.39341
H          6.08273        3.64027       -1.61829
H          7.14513        2.77789       -3.63746
H          8.14768        0.91003       -2.65985
H          6.32774       -0.14430       -4.88212
H          7.91158       -0.75308       -4.39589
H          9.86480        0.63055       -4.88645
H          9.51478        1.76684       -6.25870
H          9.10937        0.66955       -8.42240
H          7.55627        0.13844       -7.68707
H          9.78458       -1.72141       -8.70649
H          8.24880       -1.37980       -9.54281
H          8.51446       -2.65975       -7.03373
H          4.27976        1.90152       -3.01753
H          5.05749        1.53847       -4.53207
H          3.99535        3.46798       -5.10895
H          5.58509        4.10799       -4.72360
H          3.11376        4.15881       -2.86663
H          3.61983        5.47809       -3.91344
H          6.11655        6.15463       -0.63896
