50

C          1.55696        0.84243        0.75386
C          2.54241       -0.12745        0.10525
N          1.92936       -0.93017       -0.95370
N          1.89366       -0.43456       -2.25133
C          1.22375       -1.34486       -2.93642
N          0.85368       -2.40473       -2.10447
C          1.30733       -2.10951       -0.85009
N          1.18829       -2.89400        0.23698
C          0.34018       -4.09207        0.29270
C         -1.15270       -3.78660        0.48183
C         -1.96876       -5.08144        0.50414
S         -3.70253       -4.67497        0.84714
C         -4.35717       -6.28421        1.34027
S         -3.41114       -7.65099        1.38542
N         -5.67525       -6.23695        1.64845
C         -6.48845       -5.01885        1.73001
C         -6.97227       -4.82906        3.17245
O         -7.69259       -5.96583        3.63001
C         -6.89067       -7.14716        3.56296
C         -6.40307       -7.41534        2.13931
N          0.89184       -1.27855       -4.24447
C          1.48750       -0.20307       -5.04069
C          0.38337       -2.45928       -4.93396
H          2.07074        1.43082        1.52443
H          0.71931        0.31526        1.23096
H          1.15076        1.53595        0.00708
H          2.98740       -0.81927        0.83678
H          3.37291        0.40465       -0.37519
H          0.34818       -3.24295       -2.36705
H          1.46279       -2.48028        1.12159
H          0.71680       -4.70344        1.12357
H          0.51949       -4.68967       -0.61573
H         -1.50381       -3.11779       -0.32179
H         -1.29068       -3.23923        1.42716
H         -1.63539       -5.77496        1.29073
H         -1.90336       -5.62065       -0.45233
H         -7.35226       -5.13053        1.05441
H         -5.91235       -4.14447        1.40438
H         -7.66167       -3.97618        3.23388
H         -6.10061       -4.63203        3.82780
H         -7.52684       -7.97149        3.91033
H         -6.02123       -7.05692        4.24216
H         -7.26100       -7.59260        1.47069
H         -5.72765       -8.27779        2.10285
H          1.57962        0.69636       -4.42339
H          0.82766        0.01118       -5.88918
H          2.48615       -0.47887       -5.41608
H         -0.47610       -2.89135       -4.39966
H          1.15501       -3.23478       -5.08044
H          0.01720       -2.15068       -5.91874
