72

S          1.53824       -0.48625        0.01341
C          3.09833       -0.03114        0.19745
N          3.67444        0.36912        1.41063
C          3.31462       -0.08236        2.68111
C          4.06288        0.65456        3.55733
N          4.84924        1.58041        2.88318
C          4.60811        1.39190        1.61377
S          4.11251        0.02697       -1.24294
C          5.86260       -0.28258       -0.74022
C          6.45406       -1.24217       -1.77715
C          7.96768       -1.44305       -1.60578
N          8.50138       -2.32602       -2.66681
C          8.49403       -3.78913       -2.45389
C          7.78318       -4.48691       -3.61360
C          8.44867       -4.15211       -4.95508
N          8.81530       -2.71787       -4.94737
C          8.75437       -1.89712       -3.89541
N          8.95952       -0.54055       -4.16043
C          9.99495        0.20306       -3.58405
O         10.64676       -0.14097       -2.63073
C         10.22347        1.59442       -4.26693
C         11.47400        1.66919       -5.23178
C         11.29004        1.05794       -6.68449
C         10.95911        2.11053       -7.80747
O         11.76426        2.35373       -8.65824
O          9.73721        2.67182       -7.75744
F         12.41037        0.41402       -7.01638
F         10.26248        0.09930       -6.64161
F         11.79195        2.98055       -5.38368
F         12.49337        1.04216       -4.60669
F          9.08333        1.96452       -4.97920
F         10.39772        2.49477       -3.28682
C          9.68180       -5.00459       -5.28574
C         10.19856       -4.79079       -6.71221
O         11.54538       -5.22095       -6.73141
C         12.26615       -4.88916       -7.90201
C         13.72647       -4.60785       -7.53309
C         14.06698       -3.21829       -6.87598
C         13.49521       -2.79117       -5.47219
C         13.84300       -3.68747       -4.24501
F         13.51446       -2.98668       -3.12003
F         13.09208       -4.82362       -4.25839
F         14.02144       -1.56307       -5.22284
F         12.12914       -2.63654       -5.55488
F         15.42196       -3.15869       -6.75021
F         13.66591       -2.25280       -7.75491
F         14.22071       -5.58951       -6.72330
F         14.44182       -4.62532       -8.69979
H          2.58088       -0.86911        2.80631
H          4.08554        0.58011        4.63991
H          4.98769        1.98578        0.78775
H          5.86837       -0.71232        0.26971
H          6.41652        0.66606       -0.71427
H          6.27075       -0.84364       -2.78901
H          5.92990       -2.20833       -1.72140
H          8.21196       -1.92405       -0.64996
H          8.51016       -0.49217       -1.62029
H          7.97964       -3.97965       -1.50609
H          9.53644       -4.12586       -2.34347
H          6.72906       -4.17396       -3.62685
H          7.79791       -5.57364       -3.46201
H          7.69902       -4.27286       -5.75511
H          9.28083       -2.35283       -5.77542
H          8.59403       -0.19807       -5.04665
H          9.23472        2.39513       -6.96863
H          9.42021       -6.06311       -5.14611
H         10.50126       -4.77508       -4.58930
H         10.15421       -3.72148       -7.01084
H          9.58333       -5.35064       -7.44193
H         11.85725       -3.99707       -8.40631
H         12.27789       -5.72405       -8.62339
H         14.91216       -3.94778       -4.21713
