43

C         12.21806       -1.02973       -0.40360
C         11.10751       -1.80968        0.30549
C          9.95871       -0.90549        0.77463
C          8.85494       -1.67867        1.47520
O          7.80939       -0.74181        1.83079
C          6.67550       -1.31713        2.47657
C          6.93628       -1.70240        3.92034
C          6.89706       -3.04332        4.27607
C          7.10917       -3.51036        5.58998
C          7.37711       -2.57048        6.55530
N          7.43344       -1.25850        6.20985
C          7.22944       -0.75514        4.96125
N          7.30752        0.60297        4.86413
N          7.65534        1.27696        6.05738
N          7.52448        1.31882        3.67726
C          7.62861       -2.78112        8.02461
O          7.86294       -1.83209        8.75260
O          7.56148       -4.06558        8.36148
C          7.78411       -4.38533        9.78652
C          6.50138       -4.25695       10.58431
H         13.02122       -1.69973       -0.73722
H         12.66746       -0.27713        0.26084
H         11.83417       -0.50422       -1.28991
H         11.52951       -2.34908        1.17009
H         10.70958       -2.58226       -0.37297
H          9.52483       -0.37265       -0.08647
H         10.34779       -0.13367        1.45979
H          9.23634       -2.18046        2.38329
H          8.42270       -2.45057        0.81319
H          6.33417       -2.21355        1.93284
H          5.87249       -0.56939        2.40774
H          6.67733       -3.76775        3.48975
H          7.06110       -4.56596        5.84384
H          7.64400       -0.57107        6.95312
H          6.92116        1.95875        6.26985
H          8.51645        1.80097        5.86925
H          6.64874        1.74319        3.36279
H          7.90197        0.70315        2.93803
H          8.57380       -3.72111       10.15972
H          8.15100       -5.41723        9.75331
H          6.15278       -3.21751       10.62559
H          6.69240       -4.58786       11.61446
H          5.70767       -4.89019       10.16776
