36

C          0.42048        0.41380       -0.14881
C          1.69844        0.37058        0.65357
O          2.61764        1.37404        0.06622
C          3.79115        1.54787        0.63565
O          4.16517        0.89656        1.62376
C          4.56514        2.66704       -0.04537
C          6.08320        2.84399        0.18723
O          6.90641        1.99496       -0.62504
C          6.91638        0.61367       -0.22313
C          7.61580       -0.19123       -1.20558
C          8.15545       -0.90326       -2.01688
C          7.48616        0.46807        1.21108
N          6.67608        1.37759        2.10467
C          6.56780        2.80570        1.64369
C          9.01534        0.64772        1.46117
C          9.83867        1.77241        0.75281
F         11.08684        1.75601        1.28625
F          9.92366        1.51659       -0.57476
F          9.13882        0.88963        2.82659
F          9.60147       -0.54303        1.19826
H         -0.28193       -0.32418        0.26124
H          0.59926        0.16290       -1.20192
H         -0.05436        1.40142       -0.09385
H          2.20335       -0.60376        0.60211
H          1.55343        0.63568        1.70946
H          4.06681        3.59881        0.27384
H          4.38832        2.60422       -1.12803
H          6.31722        3.84995       -0.18971
H          5.87731        0.23467       -0.17193
H          8.65230       -1.52191       -2.73715
H          7.28181       -0.55493        1.56128
H          7.05954        1.33115        3.05707
H          5.64913        1.03422        2.08266
H          7.54790        3.28593        1.73663
H          5.86862        3.30939        2.32361
H          9.40479        2.77500        0.90053
