70

C          1.67034       -0.06873        2.37575
C          2.08843       -0.27133        0.93596
O          3.40732        0.34532        0.74657
P          4.44157       -0.21093       -0.33828
O          4.22294       -1.61420       -0.77795
O          4.52128        0.88620       -1.50761
C          3.46467        0.95991       -2.51708
C          3.94922        1.85274       -3.63923
C          6.06839        0.04765        0.44805
C          7.14260       -0.56750       -0.46072
C          8.47155       -0.86003        0.23335
N          9.25755       -1.84044       -0.61889
C         10.76458       -1.70208       -0.55276
C         11.41137       -2.56562       -1.64681
C         11.12039       -1.93919       -3.03310
C         11.46699       -2.83534       -4.22651
C         11.19740       -2.21852       -5.59975
C          9.76463       -2.40980       -6.23712
C          8.47671       -1.74842       -5.60486
C          8.41010       -0.18552       -5.43491
F          8.78058        0.44921       -6.54713
F          7.14354        0.15554       -5.12847
F          9.20059        0.21810       -4.40895
F          7.43994       -2.10669       -6.39241
F          8.25885       -2.29332       -4.35641
F          9.82192       -1.97703       -7.51960
F          9.50382       -3.75080       -6.24035
F         11.48094       -0.87291       -5.61842
F         12.03461       -2.81679       -6.50322
C         10.96053       -4.02988       -1.47840
C          9.43007       -4.17410       -1.47358
C          8.83243       -3.27946       -0.39161
C          8.97218       -5.63303       -1.30073
C          8.94392       -6.41576       -2.60850
C          8.28186       -5.92455       -3.82626
O          9.72071       -5.90511       -3.71217
H          0.66713       -0.49108        2.52734
H          1.63287        0.99837        2.63108
H          2.36103       -0.57213        3.06494
H          1.39209        0.22288        0.24182
H          2.16010       -1.33392        0.66557
H          2.56320        1.37301       -2.03779
H          3.24411       -0.05870       -2.86923
H          4.18254        2.85966       -3.26934
H          3.16634        1.94208       -4.40468
H          4.84631        1.43531       -4.11493
H          6.01650       -0.48068        1.41202
H          6.23727        1.11298        0.65307
H          7.31868        0.08806       -1.32849
H          6.72618       -1.50941       -0.85687
H          8.34160       -1.32614        1.21955
H          9.08888        0.03946        0.35599
H          9.00348       -1.62289       -1.59620
H         11.06831       -2.00844        0.45752
H         10.99208       -0.63515       -0.68168
H         12.49827       -2.52133       -1.47342
H         11.67848       -0.99531       -3.10989
H         10.06156       -1.65600       -3.11027
H         10.93882       -3.79913       -4.18836
H         12.54364       -3.06291       -4.22374
H         11.35768       -4.41622       -0.52440
H         11.38868       -4.66000       -2.26635
H          9.03808       -3.81576       -2.44090
H          9.18113       -3.54853        0.61701
H          7.73514       -3.30036       -0.40317
H          7.96098       -5.67688       -0.86284
H          9.63829       -6.14286       -0.58712
H          9.01843       -7.50175       -2.48749
H          7.80218       -4.94035       -3.83364
H          7.88501       -6.63934       -4.55158
