54

C          9.79532       -1.60895       -5.58619
C          9.18016       -1.23048       -4.23672
C          9.67444       -2.09832       -3.07346
C          9.07331       -1.70463       -1.72008
C          9.53869       -2.58413       -0.55449
C          8.95064       -2.16438        0.79728
C          9.33270       -3.09860        1.95127
C          8.73672       -2.66417        3.29633
C          8.95510       -3.64629        4.43256
O         10.37123       -3.71733        4.73818
C         10.68875       -4.70411        5.69507
C         12.21627       -4.58708        5.85833
N         12.47640       -3.17245        6.18720
C         12.84666       -2.91266        7.40875
S         13.19248       -4.23767        8.39524
C         12.91741       -5.44642        6.97193
C         12.07870       -6.62179        7.51769
C         11.80884       -7.79300        6.55180
F         10.62684       -8.40197        6.97043
C         14.33220       -5.87188        6.44238
C         15.27600       -6.71884        7.34981
F         15.32789       -6.16278        8.59954
F         14.81031       -7.98978        7.46993
F         14.15072       -6.58375        5.28524
F         15.04082       -4.74218        6.10601
H          9.41664       -0.96795       -6.39392
H          9.56383       -2.65065       -5.85424
H         10.89086       -1.50847       -5.56945
H          8.08115       -1.30304       -4.29945
H          9.39909       -0.17178       -4.01649
H         10.77595       -2.03879       -3.01654
H          9.44089       -3.15702       -3.28458
H          7.97183       -1.74558       -1.78557
H          9.32207       -0.65042       -1.50484
H         10.64150       -2.56522       -0.49684
H          9.26527       -3.63404       -0.76041
H          7.85025       -2.12316        0.71791
H          9.27335       -1.13507        1.03312
H         10.43088       -3.15811        2.03122
H          8.98784       -4.12150        1.71856
H          7.64607       -2.53725        3.19424
H          9.12674       -1.67539        3.59165
H          8.60624       -4.65709        4.15217
H          8.41299       -3.33444        5.34349
H         10.40829       -5.71322        5.34693
H         10.17487       -4.51461        6.65881
H         12.67732       -4.79698        4.88317
H         12.11917       -2.46414        5.54134
H         12.92486       -1.88854        7.77909
H         11.10008       -6.22415        7.82067
H         12.54589       -7.01265        8.43231
H         12.60693       -8.54468        6.58076
H         11.66793       -7.46841        5.51025
H         16.28810       -6.73532        6.91537
