51

C         11.18324       -3.18922        1.46227
C         10.51916       -2.39955        0.33258
C          9.09675       -2.89082        0.03494
C          8.44529       -2.14089       -1.11364
O          7.10571       -2.66256       -1.29489
C          6.37732       -2.09438       -2.36415
C          6.53073       -2.91048       -3.64569
N          6.33001       -4.41466       -3.42699
C          6.09417       -4.92809       -4.83020
C          5.14278       -3.89792       -5.43326
C          5.59845       -2.53695       -4.81105
C          6.35158       -1.70667       -5.88077
O          7.56107       -1.79561       -5.98537
C          5.50387       -0.83879       -6.77170
C          5.27627       -4.86685       -2.45902
C          5.77976       -6.19117       -1.87085
O          6.94472       -6.52997       -2.00514
O          4.81293       -6.82820       -1.23370
C          5.16052       -8.08618       -0.53169
C          5.40033       -7.82398        0.94549
C          5.65328       -9.13676        1.69578
H         12.19513       -2.81667        1.66674
H         11.26598       -4.25555        1.20680
H         10.60540       -3.11320        2.39473
H         11.13368       -2.47381       -0.57983
H         10.48941       -1.32981        0.59632
H          8.46692       -2.78040        0.93218
H          9.11901       -3.96653       -0.20713
H          9.03114       -2.26463       -2.04389
H          8.37760       -1.05945       -0.89712
H          6.69200       -1.05812       -2.58296
H          5.31763       -2.04516       -2.05920
H          7.56599       -2.83778       -4.01842
H          7.19092       -4.85621       -3.04053
H          5.71215       -5.95445       -4.79111
H          7.06887       -4.92737       -5.33499
H          4.09892       -4.11349       -5.16907
H          5.20420       -3.90984       -6.52876
H          4.72098       -1.97132       -4.46471
H          4.59909       -1.36582       -7.10886
H          6.08479       -0.48592       -7.62968
H          5.15709        0.03161       -6.19047
H          4.30675       -4.97476       -2.95678
H          5.18961       -4.14297       -1.64098
H          6.03804       -8.52188       -1.02593
H          4.28282       -8.72330       -0.69741
H          4.52321       -7.30975        1.36633
H          6.26306       -7.14977        1.06071
H          4.79714       -9.82081        1.60823
H          5.81471       -8.94227        2.76330
H          6.54301       -9.65589        1.31288
