54

Br         4.72091        1.42199        0.87889
C          4.97570       -0.48537        0.52175
C          4.84435       -0.78346       -0.96574
C          5.10750       -2.26881       -1.25128
N          5.14732       -2.57769       -2.69044
C          4.17839       -3.28133       -3.28081
N          2.98302       -3.57282       -2.70705
C          2.09467       -4.20094       -3.69973
C          3.10965       -4.71054       -4.74414
N          4.23602       -3.77463       -4.53418
C          3.55704       -6.16443       -4.51308
C          4.74667       -6.54956       -5.38027
O          5.51718       -5.74852       -5.89147
O          4.85619       -7.87703       -5.48906
C          6.00794       -8.36383       -6.23185
C          6.43835       -2.39327       -3.34617
C          7.35049       -3.61825       -3.06313
O          6.81151       -4.72346       -2.94801
N          8.68629       -3.39772       -2.97853
C          9.30727       -2.06400       -3.01423
C          9.33515       -1.36011       -1.65023
C         10.00556        0.01714       -1.70352
C          9.94579        0.75874       -0.36575
C          9.57487       -4.53378       -2.72982
H          4.22279       -1.00527        1.12512
H          5.97357       -0.72857        0.90485
H          5.56318       -0.16504       -1.52431
H          3.84371       -0.49836       -1.32427
H          4.36219       -2.91504       -0.76787
H          6.07860       -2.57777       -0.83318
H          2.59969       -2.99414       -1.96842
H          1.40867       -3.45870       -4.13626
H          1.50779       -5.00861       -3.24580
H          2.72343       -4.59157       -5.76463
H          5.11758       -4.11537       -4.94037
H          2.72520       -6.85611       -4.70469
H          3.86179       -6.31057       -3.46304
H          5.92468       -9.45304       -6.20120
H          6.93378       -8.02716       -5.75024
H          5.97312       -7.99780       -7.26468
H          6.85266       -1.44542       -2.98757
H          6.29479       -2.28459       -4.43097
H          8.80710       -1.43869       -3.76790
H         10.33314       -2.20249       -3.38518
H          9.85211       -2.00231       -0.91896
H          8.30235       -1.24791       -1.27376
H          9.52348        0.62799       -2.48567
H         11.05542       -0.10143       -2.01749
H          8.90626        0.93550       -0.05038
H         10.44021        1.73632       -0.43121
H         10.44403        0.18844        0.43149
H          8.97055       -5.44217       -2.65739
H         10.12717       -4.38991       -1.79015
H         10.29664       -4.63482       -3.55274
