75

O          3.10424       -1.35528       -6.28576
C          2.06223       -1.66367       -5.36156
C          1.97557       -0.44359       -4.44558
C          0.98596       -0.66039       -3.30121
N          0.83721        0.53432       -2.44048
C          1.80053        0.87084       -1.55161
N          2.25334        2.14058       -1.31899
C          3.15097        2.08793       -0.27781
N          3.28701        0.86924        0.15550
N          2.44619        0.11091       -0.62612
C          2.31392       -1.31549       -0.31108
C          3.32735       -2.23777       -1.00248
C          4.75504       -2.15082       -0.47370
F          5.36381       -0.99118       -0.83026
F          4.79939       -2.23915        0.87937
F          5.49391       -3.16746       -0.97916
C         -0.02704        1.62140       -2.97429
C         -1.49223        1.21098       -3.14095
C         -2.30980        2.33466       -3.78995
C         -3.78941        1.96546       -3.96133
C         -4.58304        2.96044       -4.82117
C         -4.22664        2.91094       -6.31153
C         -5.04882        3.86734       -7.17997
C         -4.68687        3.78386       -8.66583
C         -5.49390        4.73480       -9.55375
C         -5.12475        4.63679      -11.03706
C         -5.93282        5.58446      -11.92655
C         -5.54743        5.46789      -13.40755
N         -6.30552        6.35551      -14.27642
C         -7.51722        6.05644      -14.86234
C         -7.97153        7.18607      -15.51970
C         -7.00374        8.20977      -15.31807
C         -5.99052        7.67062      -14.54498
O          3.24181       -0.16682       -3.84961
H          3.32596       -2.14489       -6.80258
H          2.30657       -2.56482       -4.76923
H          1.09637       -1.82412       -5.87363
H          1.65668        0.41668       -5.06646
H          1.31146       -1.51299       -2.69618
H         -0.00678       -0.90693       -3.69409
H          2.04002        2.94772       -1.89584
H          3.65970        2.95496        0.13072
H          1.29013       -1.61278       -0.57027
H          2.41336       -1.38512        0.77931
H          3.37521       -2.05144       -2.08374
H          2.99792       -3.27380       -0.84167
H          0.37853        1.98613       -3.93437
H          0.00527        2.45580       -2.26024
H         -1.90902        0.94292       -2.15729
H         -1.57749        0.31663       -3.77695
H         -1.86759        2.57055       -4.77187
H         -2.23261        3.25557       -3.18657
H         -4.25306        1.88122       -2.96525
H         -3.86226        0.96320       -4.41915
H         -4.43597        3.98399       -4.43472
H         -5.65735        2.74638       -4.70507
H         -4.36921        1.87832       -6.67740
H         -3.15611        3.13905       -6.45625
H         -4.90555        4.90229       -6.82392
H         -6.12240        3.64711       -7.05048
H         -4.83283        2.74697       -9.01675
H         -3.61002        3.99678       -8.79040
H         -5.34633        5.77263       -9.20833
H         -6.57027        4.52422       -9.43128
H         -5.27051        3.59693      -11.37943
H         -4.04719        4.84753      -11.15812
H         -5.78511        6.62641      -11.59985
H         -7.00931        5.37439      -11.82084
H         -5.70191        4.43594      -13.75874
H         -4.47756        5.69332      -13.53917
H         -7.94477        5.06266      -14.77212
H         -8.89000        7.25997      -16.09332
H         -7.03495        9.22289      -15.70633
H         -5.06847        8.10616      -14.17257
H          3.90200       -0.23480       -4.56500
