48

C          5.24103       -2.88725        0.27800
C          4.39691       -1.63250        0.51541
C          5.15578       -0.54531        1.28903
C          4.30529        0.70130        1.48538
O          4.97796        1.66720        2.36898
C          5.81765        2.53556        1.79100
O          6.02387        2.64540        0.59515
C          6.52761        3.38615        2.85107
C          6.64386        4.84891        2.42041
N          7.58523        5.04922        1.28844
C          7.39807        6.15557        0.40457
O          8.10580        6.31412       -0.58090
C          6.30197        7.12889        0.74406
C          8.58954        4.12258        1.08972
N          9.36968        4.19993        0.01659
N          8.78885        3.15586        1.99376
C          7.94016        2.85263        3.15783
C          7.99941        1.35486        3.46877
C          9.37210        0.84744        3.92488
C          9.36915       -0.67828        4.17169
C          8.99486       -1.44195        2.98754
C          8.67279       -2.05042        1.99200
H          4.66416       -3.65796       -0.24921
H          5.58896       -3.32142        1.22676
H          6.12569       -2.66084       -0.33603
H          3.48332       -1.90283        1.06985
H          4.05868       -1.22767       -0.45254
H          6.07733       -0.28020        0.74589
H          5.46371       -0.93394        2.27305
H          3.37052        0.47811        2.01420
H          4.08212        1.20156        0.53378
H          5.94326        3.35414        3.77982
H          6.97267        5.45937        3.27511
H          5.66387        5.21221        2.09875
H          6.33635        7.46539        1.78852
H          5.31255        6.68359        0.56016
H          6.42129        7.98769        0.07770
H          9.18575        4.98584       -0.62549
H         10.10272        3.51984       -0.14392
H          9.50915        2.47338        1.77303
H          8.32782        3.41823        4.02396
H          7.67373        0.78320        2.58579
H          7.25682        1.15403        4.25626
H          9.68144        1.35764        4.85010
H         10.15182        1.06153        3.17311
H          8.67390       -0.91803        4.99377
H         10.36714       -0.99474        4.51266
H          8.39365       -2.62219        1.13174
