59

C          5.48613       -2.29754        0.28723
C          4.75770       -1.97521       -1.00180
O          4.40476       -0.54686       -1.03647
P          2.92896       -0.05976       -0.71513
O          2.26783       -0.72512        0.46008
C          3.17398        1.71213       -0.42976
C          3.93315        1.96202        0.89959
N          3.16559        2.68264        1.92183
C          2.11065        2.21486        2.62310
N          1.57370        3.02591        3.57779
C          0.44721        2.48085        4.33302
O         -0.40716        1.77158        3.45369
C          0.22292        0.63346        2.88847
N          1.60491        1.00179        2.44945
C          0.32222       -0.57575        3.85111
C         -0.92665       -0.77648        4.73923
C         -1.05237       -2.22063        5.27409
N         -0.11775       -2.39859        6.39385
O         -0.89991        0.11817        5.84710
C         -0.62592        0.27236        1.65164
C         -0.90000        1.46607        0.75611
O         -0.04306        2.16811        0.24317
O         -2.22007        1.64007        0.57507
C         -2.60277        2.74509       -0.28216
O          2.16499       -0.26078       -2.09736
C          0.70233       -0.25828       -2.19809
C          0.32999       -0.83249       -3.54723
H          5.81042       -3.34735        0.27545
H          4.83154       -2.15149        1.15646
H          6.37921       -1.66886        0.40025
H          3.84546       -2.57744       -1.11798
H          5.39009       -2.12731       -1.88503
H          2.17391        2.16841       -0.39819
H          3.71519        2.14038       -1.28269
H          4.81454        2.58249        0.70617
H          4.31268        1.01884        1.32521
H          3.60774        3.50679        2.31407
H          1.56012        4.01996        3.36971
H         -0.13359        3.30370        4.76038
H          0.80689        1.82889        5.14190
H          2.00952        0.34534        1.73494
H          1.19965       -0.45064        4.50191
H          0.51540       -1.46523        3.23029
H         -1.83458       -0.54708        4.15748
H         -0.92342       -2.94941        4.45473
H         -2.07120       -2.34175        5.66581
H         -0.47056       -3.06677        7.07512
H          0.79586       -2.73168        6.08872
H         -0.48995       -0.42555        6.56099
H         -1.57450       -0.15914        1.99040
H         -0.08060       -0.48403        1.06885
H         -3.69538        2.72632       -0.30394
H         -2.19118        2.60716       -1.28989
H         -2.23793        3.69195        0.13417
H          0.35501        0.77913       -2.08484
H          0.29820       -0.86155       -1.37226
H          0.75586       -0.23308       -4.36193
H         -0.76342       -0.83333       -3.65665
H          0.68568       -1.86589       -3.64819
