106

C          0.64140       -0.13099        0.23671
C          2.17128       -0.10040        0.21778
C          2.74721        1.28924       -0.07237
C          4.27775        1.32529       -0.11088
C          4.85600        2.71315       -0.40457
C          6.38622        2.73870       -0.46613
C          6.97280        4.12345       -0.75860
C          8.50269        4.13236       -0.83743
C          9.10389        5.51532       -1.10713
C         10.63341        5.50809       -1.19905
C         11.24487        6.89408       -1.42650
C         12.77386        6.88272       -1.53143
C         13.38073        8.27586       -1.72451
C         14.90820        8.27942       -1.85253
C         15.49168        9.68764       -2.00606
C         17.01338        9.72553       -2.18673
C         17.56034       11.15452       -2.27469
C         19.06787       11.24090       -2.54214
C         19.56007       12.69286       -2.59470
C         21.07427       12.88138       -2.81172
P         21.75497       12.18672       -4.35460
C         20.71981       12.72798       -5.76306
C         21.10671       11.84033       -6.95834
O         22.08917       11.09539       -6.80677
N         20.36600       11.90294       -8.08819
C         20.68855       10.99438       -9.20871
C         21.18768       11.70535      -10.47163
C         22.50126       12.47414      -10.29866
C         22.97359       13.12665      -11.59958
C         19.20452       12.76565       -8.27397
C         23.50624       12.64698       -4.54347
C         24.29506       12.38623       -3.25167
O         23.97865       11.08664       -2.79125
Si        24.72288       10.34883       -1.44173
C         24.15055       11.23914        0.11283
C         24.10381        8.58533       -1.49162
C         26.58734       10.45371       -1.62041
H          0.26003       -1.13920        0.45002
H          0.22543        0.18460       -0.73180
H          0.23923        0.54656        1.00474
H          2.54501       -0.81159       -0.53832
H          2.55973       -0.45780        1.18656
H          2.38292        2.00019        0.69032
H          2.34997        1.65199       -1.03707
H          4.63849        0.61246       -0.87343
H          4.67516        0.96204        0.85342
H          4.50876        3.42378        0.36605
H          4.44732        3.08202       -1.36196
H          6.73016        2.02794       -1.23823
H          6.79509        2.36638        0.48986
H          6.64219        4.83223        0.02097
H          6.55646        4.50280       -1.70856
H          8.82935        3.43276       -1.62697
H          8.91676        3.73617        0.10662
H          8.78930        6.21113       -0.30948
H          8.68404        5.92046       -2.04478
H         10.94541        4.83256       -2.01495
H         11.05069        5.07568       -0.27261
H         10.94183        7.56408       -0.60274
H         10.82052        7.33465       -2.34592
H         13.07686        6.23105       -2.36981
H         13.19846        6.42319       -0.62166
H         13.08677        8.91895       -0.87640
H         12.94139        8.74295       -2.62359
H         15.20386        7.66109       -2.71835
H         15.35238        7.79385       -0.96618
H         15.21728       10.28923       -1.12194
H         15.01488       10.18559       -2.86883
H         17.28780        9.16651       -3.09870
H         17.49896        9.19802       -1.34762
H         17.33033       11.68931       -1.33733
H         17.02287       11.69901       -3.07134
H         19.29071       10.71728       -3.48990
H         19.61863       10.69374       -1.75785
H         19.31514       13.18884       -1.64271
H         19.00099       13.25024       -3.36404
H         21.65192       12.39932       -2.00708
H         21.33851       13.95086       -2.80028
H         21.65715       10.78784       -4.29138
H         20.90849       13.79568       -5.95559
H         19.66513       12.63157       -5.46707
H         19.77385       10.42267       -9.43457
H         21.44654       10.29543       -8.83614
H         20.40854       12.37701      -10.86965
H         21.31743       10.92377      -11.23776
H         23.27555       11.78720       -9.92028
H         22.37696       13.25000       -9.52397
H         23.15022       12.37289      -12.38036
H         23.91047       13.68010      -11.45392
H         22.22524       13.83380      -11.98700
H         19.04010       13.40982       -7.40620
H         18.30201       12.15644       -8.43676
H         19.34505       13.41219       -9.15115
H         23.55760       13.70683       -4.83664
H         23.87498       12.03427       -5.37687
H         24.04966       13.15417       -2.49415
H         25.36946       12.48983       -3.48425
H         23.05968       11.17676        0.23770
H         24.43730       12.30074        0.11882
H         24.60553       10.78041        1.00282
H         23.00666        8.53899       -1.45147
H         24.48940        8.02330       -0.62883
H         24.43568        8.06873       -2.40233
H         26.95689       11.48896       -1.62002
H         26.93749        9.96264       -2.53894
H         27.06655        9.94421       -0.77113
