114

C          3.88679        1.27141       -2.25796
C          5.14331        0.50052       -1.84621
C          5.26947        0.31710       -0.32992
C          6.57202       -0.36264        0.10137
C          6.66076       -0.61703        1.61016
C          8.05909       -1.04471        2.06514
C          8.15210       -1.34049        3.56804
C          9.59589       -1.49760        3.99890
O          9.62829       -1.73841        5.44506
C         10.84509       -1.68228        6.01161
O         11.88861       -1.47754        5.42447
C         10.76348       -1.87267        7.52184
C         11.97912       -2.66403        7.99620
O         11.92553       -4.05677        7.58798
C         11.06765       -4.73241        8.43663
N         11.33252       -4.02628        9.83418
C         12.18549       -2.79498        9.52509
C         11.76618       -1.64304       10.42183
C         12.57872       -0.34842       10.22829
C         11.76405        0.90240       10.59132
S         10.67510        1.48271        9.25126
C          9.01780        0.93711        9.70972
S          8.70957       -0.11901       10.97474
N          8.05897        1.46568        8.92262
C          8.30913        2.45490        7.86064
C          8.41763        1.84786        6.45533
C          8.57177        2.93258        5.38222
C          8.46387        2.39164        3.95382
C          8.56544        3.46501        2.86574
C          8.28787        2.91699        1.46233
C          8.39758        3.95966        0.34533
C          8.01976        3.40333       -1.02990
C          6.64454        1.10294        9.12866
C          5.94410        1.99128       10.16302
C          4.49540        1.55637       10.40194
C          3.79422        2.38263       11.48501
C          2.35334        1.94087       11.75873
C          1.67441        2.73975       12.87575
C          0.23753        2.29489       13.16992
C         -0.41716        3.08117       14.30838
C         11.35365       -6.20348        8.52030
C         12.64330       -6.70118        8.30294
C         12.84845       -8.07597        8.44993
N         11.88206       -8.93961        8.79415
C         10.65080       -8.45016        8.99343
C         10.33202       -7.09445        8.86599
H          3.81264        1.36852       -3.34956
H          3.88525        2.28686       -1.83444
H          2.97438        0.76649       -1.90715
H          6.03793        1.02281       -2.22499
H          5.14656       -0.49013       -2.33108
H          4.40628       -0.26386        0.04013
H          5.19908        1.30349        0.16298
H          7.42413        0.26413       -0.21297
H          6.68711       -1.31936       -0.43662
H          5.91984       -1.38113        1.90169
H          6.37653        0.30134        2.15275
H          8.77217       -0.24369        1.80638
H          8.38146       -1.93196        1.49395
H          7.58433       -2.25158        3.81445
H          7.69661       -0.51789        4.14083
H         10.18723       -0.59456        3.79040
H         10.09247       -2.34560        3.50357
H          9.79968       -2.31556        7.80837
H         10.78425       -0.86213        7.96763
H         12.87407       -2.25565        7.50999
H          9.99964       -4.53350        8.23753
H         11.80724       -4.67951       10.46785
H         10.44608       -3.74189       10.27188
H         13.22539       -3.10692        9.69820
H         11.84457       -1.95517       11.47553
H         10.69455       -1.42527       10.26180
H         12.93926       -0.25161        9.19283
H         13.48071       -0.38009       10.85883
H         12.43034        1.75492       10.77773
H         11.12944        0.74555       11.47716
H          9.21493        3.02446        8.11262
H          7.47336        3.17036        7.89251
H          7.51426        1.25042        6.24931
H          9.26699        1.14712        6.41725
H          9.53635        3.45160        5.51578
H          7.79224        3.70042        5.53073
H          7.50013        1.86391        3.84583
H          9.24630        1.63137        3.78697
H          9.56655        3.92866        2.89485
H          7.84950        4.27576        3.08577
H          7.27647        2.47493        1.44410
H          8.98267        2.08529        1.24846
H          9.42592        4.35662        0.31687
H          7.74831        4.81862        0.58520
H          8.65488        2.54729       -1.30446
H          8.13000        4.16168       -1.81667
H          6.97539        3.05803       -1.04592
H          6.61308        0.05348        9.45043
H          6.14839        1.17905        8.14962
H          5.97156        3.04244        9.83086
H          6.50771        1.93977       11.10708
H          4.48264        0.49174       10.69450
H          3.92427        1.62075        9.45906
H          3.80272        3.44831       11.19697
H          4.37782        2.31776       12.41968
H          2.34618        0.86848       12.02331
H          1.75944        2.02631       10.83159
H          1.67706        3.81251       12.61328
H          2.27575        2.65518       13.79841
H          0.23557        1.21937       13.41656
H         -0.36939        2.39444       12.25401
H          0.14453        2.96506       15.24724
H         -1.44557        2.74234       14.49355
H         -0.45772        4.15669       14.08044
H         13.45719       -6.04206        8.00097
H         13.83869       -8.50572        8.27880
H          9.87946       -9.17657        9.26154
H          9.30602       -6.75341        9.02014
