59

C          2.08656       -6.13713        2.66865
C          3.08009       -6.61844        1.60968
C          3.74149       -5.46343        0.85001
C          4.72524       -5.95199       -0.20894
N          5.33162       -4.81998       -0.91984
C          6.28572       -4.97338       -1.85747
O          6.74818       -6.07914       -2.17534
C          6.77963       -3.70550       -2.56321
C          8.14726       -3.94724       -3.19258
S          8.12537       -5.47880       -4.26082
C          9.03291       -4.65706       -5.47293
N          9.26493       -3.38905       -5.26596
C          8.66297       -2.77901       -4.07184
C          9.67882       -1.86569       -3.35443
C          9.08265       -1.11231       -2.19835
C          9.50648       -1.20862       -0.93503
C          9.53023       -5.36390       -6.70266
C         10.18568       -4.46268       -7.76823
O         10.35688       -3.24187       -7.56575
N         10.57098       -5.07414       -8.90837
C         11.24436       -4.29014       -9.96654
C         10.38020       -4.07313      -11.21374
C          9.13001       -3.21773      -10.98353
C          8.32623       -2.99673      -12.26687
C         10.39258       -6.50936       -9.14097
H          1.62936       -6.98388        3.19675
H          1.27449       -5.54938        2.21640
H          2.57936       -5.50313        3.42008
H          2.56642       -7.27756        0.89081
H          3.86145       -7.23318        2.08547
H          4.26755       -4.80814        1.56562
H          2.95985       -4.84883        0.36989
H          4.22152       -6.60405       -0.94008
H          5.53014       -6.54922        0.24618
H          4.99931       -3.88653       -0.69855
H          6.85583       -2.86704       -1.85423
H          6.04682       -3.42078       -3.33610
H          8.87677       -4.17270       -2.40053
H          9.76482       -2.90835       -6.06566
H          7.80978       -2.16744       -4.41792
H         10.06321       -1.14706       -4.09873
H         10.53279       -2.47331       -3.01717
H          8.26642       -0.42256       -2.44046
H         10.33229       -1.86686       -0.65561
H          9.06037       -0.61415       -0.13777
H          8.68971       -5.93043       -7.13462
H         10.25062       -6.13557       -6.38160
H         12.16714       -4.82960      -10.22926
H         11.52552       -3.32927       -9.52063
H         10.09394       -5.04469      -11.65218
H         11.02503       -3.58852      -11.96494
H          9.43051       -2.24711      -10.55724
H          8.48667       -3.69701      -10.22635
H          8.92928       -2.48385      -13.02979
H          7.43547       -2.38274      -12.07967
H          7.98883       -3.95085      -12.69776
H          9.33395       -6.80508       -9.11394
H         10.95412       -7.11398       -8.41337
H         10.77480       -6.74455      -10.13904
