42

C          7.01466       -3.64623        0.86037
O          6.39212       -2.38030        0.65730
C          6.88068       -1.39078        1.53629
C          6.11587       -0.11086        1.22224
O          6.65975        0.93418        2.04931
C          6.02456        2.18691        1.88838
C          6.68493        3.14036        2.89457
P          8.49401        2.92003        2.91495
C          9.22919        3.14694        1.24596
C         10.64824        2.84884        1.29264
C         11.82314        2.57375        1.36414
C          9.31719        4.04769        4.08691
C          8.90862        3.91663        5.57084
C          9.01540        2.51371        6.19382
C         10.45064        1.94394        6.23433
S         10.41299        0.19358        5.77591
O          9.73711       -0.57056        6.79367
O          9.99947        0.10582        4.38501
Cl        12.42442       -0.26773        5.84263
H          6.56907       -4.33791        0.13670
H          6.83457       -4.02263        1.88289
H          8.10413       -3.58942        0.68638
H          7.96810       -1.22525        1.39207
H          6.72497       -1.67685        2.59524
H          5.04138       -0.23961        1.43765
H          6.22916        0.14749        0.15441
H          4.94093        2.12696        2.09762
H          6.14048        2.56648        0.85412
H          6.34070        2.92584        3.91810
H          6.45463        4.19279        2.67340
H          8.80358        1.59883        3.30364
H          9.02961        4.17809        0.91041
H          8.69492        2.46019        0.56932
H         12.86490        2.32348        1.39028
H          9.13534        5.07455        3.73367
H         10.39193        3.85510        3.93589
H          7.87497        4.27041        5.69886
H          9.53676        4.62392        6.13331
H          8.34903        1.81770        5.65949
H          8.62318        2.55528        7.21773
H         10.90710        1.99523        7.23014
H         11.13316        2.40539        5.50841
