56

C          0.49559       -2.44009        5.14130
C          1.80964       -2.23097        4.38467
C          2.84568       -1.43173        5.18386
C          4.18121       -1.26292        4.45211
C          5.20095       -0.42771        5.23455
C          6.55672       -0.32345        4.52714
C          7.54448        0.54510        5.30984
N          8.88938        0.56497        4.70311
C          9.41074        1.47323        3.77400
C          8.73739        2.72298        3.31208
C          9.01782        3.91566        4.23738
O          8.54405        3.56696        5.52990
C          8.89486        4.48003        6.58501
C          8.68116        3.71080        7.87649
O          9.47170        2.51684        7.89199
N         10.60463        1.10251        3.38225
N         10.85465       -0.05982        4.06092
C          9.83353       -0.40305        4.85978
N          9.74904       -1.49091        5.65013
C         10.56734       -2.69413        5.47480
C         11.95264       -2.60830        6.12598
C         12.63087       -3.99532        6.13706
F         12.66442       -4.55695        4.90881
F         13.90723       -3.87647        6.57666
F         11.97128       -4.83410        6.96906
O         12.72824       -1.68084        5.37418
H         -0.22772       -3.00516        4.53850
H          0.02842       -1.48015        5.40620
H          0.65639       -2.99868        6.07518
H          1.60943       -1.71134        3.43264
H          2.23794       -3.20980        4.11032
H          3.02245       -1.93016        6.15325
H          2.43116       -0.43780        5.42692
H          4.00559       -0.79352        3.46881
H          4.60892       -2.25868        4.24057
H          5.34459       -0.86871        6.23684
H          4.79491        0.58393        5.40488
H          6.42813        0.10170        3.51843
H          6.97745       -1.33287        4.38137
H          7.65430        0.20548        6.35266
H          7.21834        1.58983        5.37820
H          7.65296        2.56509        3.22388
H          9.12031        2.94882        2.30838
H          8.49927        4.81072        3.84989
H         10.10208        4.12854        4.26562
H          8.26293        5.38421        6.54368
H          9.95419        4.77605        6.48045
H          7.60837        3.46817        7.99161
H          8.98608        4.32216        8.73708
H          9.46900        2.20639        6.97086
H         11.78103       -0.49439        4.07406
H          8.93221       -1.56095        6.24597
H         10.68787       -2.90678        4.40102
H         10.01159       -3.52946        5.91700
H         11.85830       -2.29359        7.18021
H         13.61075       -1.59639        5.77403
