49

C          5.88087        2.18772        7.51307
C          5.28761        0.89246        6.95349
C          6.30386        0.04233        6.18203
C          5.72052       -1.26469        5.63491
C          6.72067       -2.08835        4.81669
C          6.13713       -3.40904        4.30220
C          7.06611       -4.19063        3.37538
O          8.37445       -4.47596        3.93263
C          8.36901       -5.43022        4.96867
N          9.74872       -5.56333        5.43616
C         10.71456       -6.07383        4.60586
N         11.78427       -5.32513        4.31161
C         12.99402       -5.78859        3.61399
C         12.99022       -7.31585        3.48915
C         11.57222       -7.75358        3.09183
N         10.61115       -7.33219        4.13687
C          9.72301       -8.26286        4.73709
C          9.28601       -9.38360        4.15666
C         13.48913       -8.02861        4.75427
H          5.12365        2.77679        8.04781
H          6.28888        2.82119        6.71154
H          6.69816        1.98161        8.22009
H          4.44068        1.13200        6.28880
H          4.86337        0.29476        7.77775
H          7.16129       -0.18651        6.84021
H          6.71528        0.63682        5.34749
H          4.84185       -1.03729        5.00654
H          5.33910       -1.87393        6.47314
H          7.61698       -2.29045        5.42867
H          7.07512       -1.48974        3.95954
H          5.21894       -3.21085        3.72405
H          5.81147       -4.03624        5.14969
H          7.29340       -3.60266        2.47547
H          6.59744       -5.13856        3.05342
H          7.99621       -6.40780        4.61566
H          7.76832       -5.11566        5.83829
H         10.06205       -4.73905        5.94655
H         11.68229       -4.32512        4.45833
H         13.87206       -5.44100        4.17656
H         13.01745       -5.31178        2.62229
H         13.65641       -7.57232        2.65177
H         11.51076       -8.84365        3.02055
H         11.26763       -7.32568        2.12482
H          9.44054       -7.98933        5.75349
H          9.52493       -9.66944        3.13337
H          8.65133      -10.05906        4.72525
H         12.87465       -7.79844        5.63659
H         14.52047       -7.73128        4.98355
H         13.47970       -9.11776        4.61847
