50

C          1.69238       -0.94191       -0.62371
C          2.89302       -0.86260       -0.48333
S          4.53680       -0.69257       -0.17846
C          5.14829       -2.48647       -0.21020
C          4.57522       -3.24623        0.93495
C          3.42666       -4.03351        0.74781
C          2.90300       -4.74550        1.82509
C          3.51228       -4.66878        3.08001
C          4.66012       -3.88635        3.29087
C          5.17913       -3.17670        2.20024
C          5.31631       -3.80680        4.64398
C          5.17812        0.05798       -1.73731
C          6.66187        0.39075       -1.59168
C          7.23190        1.07708       -2.86039
C          6.59696        2.45965       -3.10397
C          6.97897        3.11290       -4.44831
C          6.20803        4.37842       -4.70090
C          6.65804        5.64307       -4.60168
C          8.06504        6.01809       -4.21764
C          5.74812        6.80844       -4.88820
C          8.76075        1.14926       -2.73786
H          0.62893       -1.00974       -0.75310
H          6.23646       -2.34856       -0.14726
H          4.86341       -2.86999       -1.19739
H          2.96166       -4.10104       -0.23689
H          2.02127       -5.37109        1.68615
H          3.09532       -5.23609        3.91393
H          6.07796       -2.56902        2.33792
H          4.90843       -4.55609        5.33252
H          5.16051       -2.81677        5.09834
H          6.40127       -3.96418        4.57232
H          4.55127        0.95255       -1.85694
H          4.95933       -0.64633       -2.55217
H          7.23862       -0.52957       -1.40822
H          6.81490        1.04964       -0.72079
H          6.98926        0.43053       -3.72455
H          6.87507        3.14130       -2.28153
H          5.49619        2.38609       -3.07614
H          6.77381        2.39351       -5.26053
H          8.06011        3.30495       -4.47633
H          5.15829        4.23843       -4.98337
H          8.70506        5.15661       -3.99416
H          8.05983        6.67220       -3.33122
H          8.54575        6.59656       -5.02250
H          4.73654        6.48178       -5.16007
H          6.14397        7.42193       -5.71342
H          5.67346        7.47669       -4.01526
H          9.05972        1.80133       -1.90309
H          9.21316        1.55134       -3.65230
H          9.19902        0.15607       -2.56627
