51

C          1.88072        1.82858       -1.61143
C          0.55934        1.39040       -1.03674
C         -0.30534        0.55189       -1.75908
C         -1.53949        0.16224       -1.23566
C         -1.95779        0.58283        0.03732
C         -1.07749        1.39396        0.77387
C          0.14983        1.79606        0.24291
C         -3.31010        0.16490        0.57668
C         -4.43236        1.23610        0.48898
C         -4.19699        2.45081        1.42994
C         -3.65560        3.48821        0.52617
N         -3.84566        3.21081       -0.72073
C         -4.53100        1.90037       -0.90395
C         -3.43864        4.04897       -1.85149
C         -2.26196        3.43535       -2.63659
O         -1.69792        4.52807       -3.32962
C         -1.04652        4.20948       -4.54121
C         -0.61276        5.51119       -5.21754
C         -1.72464        6.45324       -5.81494
C         -2.79882        7.17096       -4.90959
C         -2.27044        8.12485       -3.79442
F         -3.32342        8.86002       -3.34206
F         -1.78975        7.39640       -2.74340
F         -3.53258        7.93237       -5.76577
F         -3.63829        6.24183       -4.36185
F         -1.07086        7.44962       -6.47559
F         -2.42392        5.71092       -6.72158
F          0.16723        6.25211       -4.37489
F          0.16018        5.14649       -6.28740
H          2.41936        0.98549       -2.06480
H          2.52651        2.27511       -0.84585
H          1.73873        2.58175       -2.40248
H         -0.00154        0.18576       -2.74212
H         -2.17595       -0.51033       -1.81604
H         -1.32511        1.68447        1.79736
H          0.81555        2.41735        0.84538
H         -3.22566       -0.14479        1.62993
H         -3.65614       -0.72216        0.02582
H         -5.38462        0.75171        0.73694
H         -3.53224        2.25026        2.28063
H         -5.13715        2.83550        1.86758
H         -3.17525        4.42511        0.81539
H         -4.02207        1.33955       -1.69822
H         -5.56337        2.10676       -1.22448
H         -3.12369        5.02641       -1.46451
H         -4.31175        4.19927       -2.50125
H         -2.60922        2.65003       -3.33104
H         -1.53256        2.98311       -1.94291
H         -1.70446        3.65237       -5.23121
H         -0.12326        3.62426       -4.37736
H         -1.48366        8.79917       -4.16571
