52

Br         2.33098        0.19305        0.62553
C          3.21661       -0.62877       -0.92978
C          3.93180        0.41159       -1.77936
C          5.10225        1.07446       -1.03646
N          5.64989        2.21471       -1.78326
C          5.35166        3.48287       -1.56020
C          4.47417        3.94930       -0.44193
C          4.04445        5.42097       -0.50668
C          3.27825        5.85256        0.74912
C          2.81825        7.31436        0.69684
C          2.08648        7.75608        1.96646
S          6.10109        4.58782       -2.63701
C          6.69357        3.21286       -3.73444
C          6.68391        1.98956       -2.81420
C          5.81159        3.07456       -4.98033
C          5.81734        4.31646       -5.87067
O          7.16538        4.70800       -6.04603
C          7.34862        5.69980       -7.06215
C          8.82755        5.96710       -7.23477
O          9.43741        4.83096       -7.81909
C         10.83413        5.00298       -8.02116
H          2.41816       -1.12165       -1.49173
H          3.89352       -1.38664       -0.51925
H          3.21455        1.18326       -2.09720
H          4.29542       -0.08699       -2.69347
H          5.92477        0.36183       -0.87669
H          4.77180        1.42084       -0.04958
H          5.03119        3.76340        0.49650
H          3.58932        3.29235       -0.38558
H          3.41993        5.58155       -1.40007
H          4.93372        6.06354       -0.62365
H          3.91832        5.70161        1.63606
H          2.40187        5.19616        0.89012
H          2.16228        7.45675       -0.17831
H          3.69366        7.96428        0.52985
H          1.19033        7.14471        2.14680
H          1.76392        8.80291        1.89438
H          2.73267        7.66873        2.85211
H          7.71390        3.47887       -4.03336
H          7.64790        1.84976       -2.29776
H          6.45434        1.07192       -3.37265
H          4.77524        2.82452       -4.70174
H          6.21572        2.22451       -5.55452
H          5.22383        5.13583       -5.41372
H          5.34080        4.07259       -6.83819
H          6.83353        6.63789       -6.78134
H          6.92149        5.33807       -8.01544
H          9.28644        6.20184       -6.25251
H          8.95007        6.85999       -7.88075
H         11.20168        4.08821       -8.50073
H         11.36804        5.14996       -7.06391
H         11.04659        5.86516       -8.67934
