47

C          1.87688        0.77215       -4.10694
C          2.74936       -0.12373       -3.22721
N          2.06117       -0.54403       -1.99136
C          1.34924       -1.69093       -2.02295
O          1.22010       -2.39550       -3.03437
C          0.61553       -2.09097       -0.71746
N         -0.13760       -3.34295       -0.86958
C          0.42575       -4.55381       -0.50580
C         -0.34950       -5.70111       -0.54895
C         -1.68595       -5.65060       -0.96523
C         -2.23791       -4.44203       -1.33175
C         -1.45818       -3.27140       -1.31708
N         -1.99126       -2.04020       -1.65101
N         -3.37061       -1.82546       -1.53425
N         -1.49993       -1.34275       -2.77859
C          1.85781       -4.66350       -0.06059
C          2.91587       -4.64328       -1.20253
O          3.53869       -3.34908       -1.12990
C          3.93590       -5.76653       -1.03930
C          2.25536        0.28862       -0.79450
C          3.55289       -0.01397       -0.04092
H          2.44110        1.09339       -4.99247
H          1.55332        1.67634       -3.57260
H          0.98742        0.23089       -4.45626
H          3.66959        0.39719       -2.92862
H          3.03539       -1.03130       -3.77293
H         -0.11222       -1.32361       -0.41884
H          1.33271       -2.21902        0.09777
H          0.10537       -6.64271       -0.24966
H         -2.28047       -6.56261       -1.02085
H         -3.26672       -4.37583       -1.67765
H         -3.70052       -2.11790       -0.61574
H         -3.90475       -2.25202       -2.29930
H         -0.71278       -1.85446       -3.19553
H         -1.20625       -0.40085       -2.50861
H          1.93127       -5.61455        0.47980
H          2.13894       -3.88470        0.66269
H          2.39836       -4.74255       -2.17278
H          4.10711       -3.24426       -1.90977
H          4.44269       -5.69517       -0.06665
H          4.69828       -5.71214       -1.82896
H          3.45202       -6.75088       -1.11626
H          1.38852        0.17753       -0.12938
H          2.24037        1.33732       -1.12664
H          3.58780       -1.05707        0.29822
H          3.63915        0.64506        0.83308
H          4.43264        0.15910       -0.67502
