49

C          1.61238        1.56298       -6.56051
C          2.55717        2.75868       -6.70561
C          3.38612        3.01473       -5.43693
C          4.26608        4.24422       -5.58998
O          5.04663        4.49085       -4.35544
C          6.23911        3.94048       -4.26310
O          6.79207        3.27684       -5.14735
C          6.93467        4.15861       -2.93393
C          8.43443        3.93097       -3.14893
C          9.18022        5.09630       -3.84777
C         10.29214        4.43264       -4.69958
N          9.73293        3.04690       -4.85875
C          8.70634        2.79420       -4.08246
C         10.17609        2.09281       -5.88915
C         10.76581        0.75442       -5.34858
F         11.76877        1.02830       -4.47148
F          9.79373        0.06270       -4.68668
F          9.11860        1.79306       -6.68315
F         11.12084        2.69765       -6.64132
Si        12.06054        4.58855       -3.85462
C         11.96413        3.72614       -2.18505
C         13.42678        3.89973       -4.93787
C         12.30255        6.44463       -3.67537
H          1.04267        1.39792       -7.48405
H          0.88946        1.72172       -5.74770
H          2.16499        0.63832       -6.34022
H          1.97335        3.66114       -6.95046
H          3.23762        2.59337       -7.55692
H          4.01628        2.13548       -5.22590
H          2.71913        3.15258       -4.57142
H          3.67668        5.16200       -5.70187
H          4.97156        4.15050       -6.42547
H          6.51277        3.43640       -2.21622
H          6.72368        5.15656       -2.52887
H          8.90769        3.68319       -2.18165
H          9.57801        5.80748       -3.11594
H          8.48366        5.64835       -4.49583
H         10.35522        4.88296       -5.69991
H          8.30134        1.78713       -4.01232
H         11.14952        0.14685       -6.18341
H         11.67082        2.67172       -2.27828
H         11.26684        4.22824       -1.49970
H         12.95369        3.74510       -1.70639
H         13.40755        2.80845       -5.02931
H         14.39066        4.17690       -4.48594
H         13.39987        4.33603       -5.94543
H         11.59743        6.91533       -2.97800
H         12.22245        6.95679       -4.64462
H         13.31558        6.63237       -3.29132
