55

C          7.04146       -3.18547       -3.84559
C          6.41282       -2.44706       -2.68096
O          7.33583       -1.47238       -2.07853
P          8.39239       -1.92151       -0.96766
O          8.00498       -3.10135       -0.14428
O          9.79095       -2.20607       -1.69502
C         10.35989       -1.32724       -2.71458
C         11.47066       -2.07752       -3.41865
C          8.61447       -0.39482        0.01477
C          9.29296       -0.70875        1.36378
C          8.30344       -1.37350        2.34393
N          8.88708       -2.43400        3.19005
C          9.23804       -3.73441        2.63058
I         11.41358       -3.88024        2.24502
C          8.82087       -4.70570        3.73559
N          8.82031       -3.82918        4.92018
C          8.81447       -2.53379        4.53363
N          8.72771       -1.51961        5.40309
C          9.16936       -0.13051        5.19725
C          9.72349        0.44864        6.50137
C         10.13735        1.91466        6.32012
C         10.57663        2.54376        7.64527
S         11.05094        4.26797        7.35142
O         12.28195        4.29583        6.59670
O          9.88462        5.00488        6.92360
Cl        11.48931        4.85544        9.29359
H          6.28854       -3.84421       -4.30116
H          7.88137       -3.81271       -3.51789
H          7.39228       -2.48887       -4.61841
H          6.08660       -3.13788       -1.89137
H          5.55828       -1.83807       -3.00032
H         10.74700       -0.42263       -2.21800
H          9.56455       -1.03003       -3.41359
H         12.24717       -2.38881       -2.70818
H         11.93310       -1.42542       -4.17227
H         11.08194       -2.96970       -3.92561
H          7.62631        0.06742        0.15754
H          9.21314        0.32195       -0.56465
H          9.69526        0.21694        1.80071
H         10.15527       -1.37112        1.20107
H          7.50339       -1.86188        1.77044
H          7.83706       -0.63687        3.00767
H          8.77616       -3.87040        1.64469
H          9.50952       -5.54522        3.86613
H          7.80496       -5.09357        3.55253
H          9.19555       -4.12284        5.81555
H          8.44227       -1.76658        6.34686
H          8.32654        0.48860        4.85136
H          9.94039       -0.12801        4.41401
H         10.58246       -0.15253        6.83878
H          8.94814        0.37816        7.28374
H          9.29449        2.49350        5.91260
H         10.96084        1.98202        5.59300
H         11.45998        2.05859        8.08119
H          9.76663        2.57784        8.38600
