52

C          2.21346        1.70477       -1.42574
C          3.17816        1.04116       -0.44728
S          4.32661       -0.02079       -1.41757
C          5.28098       -0.66267       -0.13825
N          5.25062       -0.44825        1.15689
N          6.24480       -1.25094        1.71165
C          6.78695       -1.86082        0.71531
O          6.26232       -1.59189       -0.49663
N          7.85519       -2.82434        0.86366
C          9.22884       -2.39396        0.26334
C          9.54614       -0.95067        0.69726
O          8.70780        0.02411        0.10265
C         10.30219       -3.37247        0.72270
C          7.39520       -4.26143        0.50596
C          7.35500       -4.56482       -0.98215
C          6.75100       -5.95684       -1.22706
N          6.68064       -6.20831       -2.65621
C          6.01823       -7.48571       -2.98302
C          6.04126       -7.76539       -4.46467
C          4.86529       -7.78521       -5.22307
C          4.87817       -8.07551       -6.58898
C          6.09225       -8.34682       -7.22267
C          7.28186       -8.32323       -6.49304
C          7.25321       -8.03568       -5.12630
O          8.40791       -7.99862       -4.36608
H          1.51569        2.33615       -0.86023
H          1.62077        0.96603       -1.98174
H          2.73718        2.34696       -2.14633
H          2.66143        0.39594        0.27368
H          3.78425        1.77251        0.10084
H          7.98992       -2.82321        1.88958
H          9.08277       -2.42914       -0.82475
H         10.61028       -0.77397        0.47365
H          9.42935       -0.84949        1.78996
H          9.09234        0.31327       -0.73968
H         10.40064       -3.38503        1.81898
H         11.26807       -3.04958        0.31386
H         10.13181       -4.39659        0.37210
H          6.40036       -4.34365        0.96514
H          8.07583       -4.92922        1.04878
H          8.36928       -4.53876       -1.41114
H          6.74861       -3.82796       -1.52562
H          5.72376       -5.98466       -0.82426
H          7.32798       -6.72489       -0.66126
H          7.62553       -6.24213       -3.04688
H          4.97228       -7.42075       -2.64652
H          6.48174       -8.33712       -2.44038
H          3.91823       -7.57638       -4.72101
H          3.94661       -8.09104       -7.15393
H          6.11983       -8.57617       -8.28821
H          8.23635       -8.53033       -6.98424
H          9.15414       -8.26942       -4.92524
