54

O          3.15070        1.17963       -3.10447
C          2.43097        0.62265       -2.01302
C          3.13407       -0.66114       -1.60202
N          4.61864       -0.49519       -1.34383
C          4.95888        0.69159       -0.48492
C          6.45556        0.71704       -0.21250
O          6.91614       -0.49388        0.36180
C          6.67604       -1.70589       -0.40538
C          5.16033       -1.76447       -0.72246
C          7.51732       -1.61982       -1.70439
C          7.34728       -2.72092       -2.76728
C          7.60764       -2.19507       -4.18095
C          6.56625       -1.18474       -4.63765
O          5.60761       -0.82087       -3.97309
O          6.72215       -0.66530       -5.86964
C          7.06176       -2.91010        0.57682
C          8.62028       -3.17602        0.56261
C          9.47557       -2.02642        1.12613
C          9.05816       -4.48561        1.24875
C          6.55846       -2.51754        2.00792
O          6.63396       -3.56315        2.96990
C          6.33212       -4.20240        0.14273
H          2.64088        1.90739       -3.49257
H          1.39851        0.34287       -2.28644
H          2.36281        1.32604       -1.16339
H          3.06062       -1.41242       -2.39935
H          2.67992       -1.06140       -0.68545
H          5.06028       -0.39909       -2.29042
H          4.39073        0.58592        0.45008
H          4.64385        1.59719       -1.01612
H          6.66653        1.49994        0.52821
H          7.00804        0.98302       -1.13161
H          4.58561       -1.91455        0.19917
H          4.91804       -2.56954       -1.42269
H          8.57173       -1.53761       -1.41492
H          7.27942       -0.65995       -2.18124
H          6.33529       -3.14878       -2.75128
H          8.03183       -3.55616       -2.56694
H          7.61431       -3.02320       -4.90927
H          8.60312       -1.72339       -4.25249
H          7.50993       -1.03544       -6.30863
H          8.89112       -3.30185       -0.49896
H          9.36894       -1.95008        2.21755
H          9.23109       -1.04571        0.70259
H         10.53598       -2.22991        0.92446
H          8.79809       -4.49650        2.31362
H         10.15001       -4.57573        1.16658
H          8.63183       -5.38158        0.78074
H          5.52520       -2.12812        1.95424
H          7.17368       -1.70640        2.40822
H          5.92048       -4.19966        2.81365
H          6.63966       -4.54992       -0.85164
H          5.23767       -4.10138        0.14428
H          6.56955       -5.01269        0.83965
