47

C          1.88389       -0.38450       -0.37975
C          2.78705        0.37201        0.59681
N          2.93980        1.79542        0.26397
C          2.17827        2.79261        0.77176
O          2.37733        3.98557        0.47959
C          1.05123        2.40334        1.74761
C         -0.04726        3.47110        1.88561
O         -0.56161        3.78399        0.54293
C         -0.28219        5.09091        0.19498
N         -0.21079        5.80021        1.53178
C          0.49091        4.82528        2.42664
I         -1.84545        5.93622       -1.03478
C         -1.22969        2.89251        2.68503
C         -2.41822        3.80988        2.99623
O         -2.40687        5.01720        2.70396
C         -3.59097        3.23484        3.68669
C         -4.67972        4.08818        3.96717
C         -5.79836        3.60348        4.63455
C         -5.84842        2.26206        5.03386
C         -4.77746        1.40500        4.75874
C         -3.65520        1.88431        4.08788
C          4.00657        2.15486       -0.69104
C          5.33219        2.48998       -0.00689
H          1.83664       -1.44746       -0.10836
H          2.26293       -0.31657       -1.40779
H          0.86021        0.01591       -0.37618
H          3.79599       -0.06520        0.59947
H          2.42189        0.27484        1.62753
H          1.48859        2.20956        2.74200
H          0.56984        1.46858        1.43311
H          0.66971        5.21734       -0.33528
H         -1.20552        5.81876        1.92082
H          0.22696        6.72555        1.47070
H          0.19893        5.02206        3.46366
H          1.56906        4.91395        2.27835
H         -0.85473        2.49610        3.64343
H         -1.60803        2.01966        2.13120
H         -4.62519        5.12967        3.65224
H         -6.63453        4.26901        4.84933
H         -6.72517        1.88439        5.56105
H         -4.82008        0.36106        5.06894
H         -2.83311        1.19845        3.88416
H          3.65101        3.01242       -1.27507
H          4.12299        1.30526       -1.37808
H          5.22332        3.36715        0.64319
H          6.09466        2.71949       -0.76316
H          5.70298        1.65004        0.59692
