66

F          2.56165        0.59312       -0.54453
C          3.51898       -0.15320        0.08569
C          3.33860        0.03013        1.64871
C          2.02132       -0.50834        2.35820
C          1.96553       -1.98067        2.94422
C          2.90248       -2.49999        4.11546
C          3.05405       -1.61413        5.40451
F          1.84660       -1.28076        5.88923
F          3.71901       -2.32384        6.32889
F          3.75004       -0.49907        5.12925
F          2.35200       -3.68868        4.49873
F          4.13705       -2.75896        3.62492
F          0.68647       -2.14854        3.35473
F          2.18155       -2.85926        1.90392
F          1.71873        0.32112        3.37977
F          0.99868       -0.45117        1.45133
F          4.41872       -0.54669        2.25115
F          3.37676        1.36033        1.88489
C          3.57440       -1.57939       -0.47828
C          2.25809       -2.07261       -1.12227
C          2.34292       -3.54501       -1.43235
C          3.14520       -4.06877       -2.46113
C          3.21961       -5.44277       -2.65715
C          2.51387       -6.33105       -1.83800
N          1.73721       -5.80220       -0.84245
C          1.64591       -4.45907       -0.65702
C          1.07272       -6.66398        0.18049
C          1.95259       -6.82340        1.42473
C          1.24791       -7.66924        2.48897
C          2.09259       -7.82143        3.76863
N          1.42839       -8.62783        4.77209
C          1.47058      -10.00702        4.84150
C          0.58772      -10.41514        5.82257
C         -0.02083       -9.24522        6.36070
C          0.50913       -8.15926        5.69156
C          2.59956       -7.79695       -2.03149
C          3.81244       -8.45329       -1.76562
C          3.91721       -9.83032       -1.97155
C          2.82306      -10.55175       -2.45619
C          1.61990       -9.89702       -2.74029
C          1.50266       -8.52345       -2.52820
F          4.72620        0.44901       -0.16645
H          3.90909       -2.26213        0.31333
H          4.37335       -1.56166       -1.23275
H          2.07066       -1.50715       -2.04546
H          1.40436       -1.88630       -0.46081
H          3.70273       -3.39693       -3.11656
H          3.81987       -5.86334       -3.46246
H          0.99883       -4.14398        0.15948
H          0.86205       -7.63334       -0.27987
H          0.11615       -6.18283        0.42338
H          2.19665       -5.82809        1.83251
H          2.90603       -7.29262        1.13135
H          1.02413       -8.67207        2.09234
H          0.28199       -7.21342        2.75888
H          2.30926       -6.83275        4.20194
H          3.06089       -8.28878        3.53231
H          2.13849      -10.57505        4.20131
H          0.41590      -11.44019        6.13431
H         -0.74905       -9.20183        7.16397
H          0.32774       -7.09468        5.80265
H          4.66582       -7.88694       -1.38912
H          4.85729      -10.33826       -1.75538
H          2.90858      -11.62582       -2.62160
H          0.77212      -10.45633       -3.13651
H          0.56962       -8.01043       -2.76900
