78

C          4.68857       -0.45185        1.37396
C          5.22645        0.88730        1.88275
C          4.48190        2.08466        1.28448
C          5.02950        3.42259        1.79269
N          4.27504        4.57501        1.26472
C          3.15993        4.99769        1.89800
S          2.59629        4.37810        3.34548
S          2.30948        6.32550        1.01640
C          0.96147        6.70906        2.15627
C         -0.25808        5.79005        2.01573
C         -1.28442        6.13411        3.10543
P         -2.79672        5.09933        3.11818
Si        -4.11744        5.28798        1.20091
C         -5.83685        4.75841        1.72881
C         -4.02294        7.11312        0.77941
C         -3.35267        4.16382       -0.08733
C         -2.43934        3.39872        3.71116
C         -3.66287        2.74043        4.36920
P         -3.19015        1.15498        5.16186
O         -1.94351        1.26213        5.95471
O         -4.49283        0.67461        5.96086
C         -4.58411        0.80426        7.42110
C         -5.45169       -0.31898        7.94639
O         -3.18640        0.20696        3.87330
C         -2.77007       -1.19489        4.00410
C         -2.67426       -1.78724        2.61513
C          4.75686        5.16324       -0.00005
C          5.61622        6.42655        0.16291
C          6.92747        6.23517        0.93133
C          7.74703        7.52550        1.00935
H          5.21648       -1.29695        1.83519
H          4.80402       -0.54126        0.28358
H          3.61821       -0.56083        1.60402
H          6.30222        0.96553        1.65341
H          5.14270        0.92547        2.98119
H          3.41385        2.02257        1.54678
H          4.54807        2.05302        0.18374
H          6.07681        3.55404        1.48907
H          4.98003        3.46316        2.88905
H          0.70329        7.75723        1.94075
H          1.37570        6.63660        3.17377
H          0.08395        4.75144        2.13124
H         -0.69647        5.90179        1.01249
H         -1.63261        7.17628        3.01733
H         -0.83273        6.02557        4.10502
H         -3.56859        5.65930        4.17018
H         -6.21466        5.35297        2.57138
H         -5.88592        3.69558        1.99856
H         -6.52271        4.91402        0.88197
H         -4.38687        7.74813        1.59869
H         -4.66850        7.30307       -0.09158
H         -3.00692        7.43125        0.51125
H         -3.35036        3.11275        0.23185
H         -2.32500        4.45415       -0.34196
H         -3.95336        4.22596       -1.00755
H         -1.61155        3.47242        4.43463
H         -2.07187        2.80711        2.86003
H         -4.47779        2.54916        3.65818
H         -4.06078        3.37425        5.17637
H         -5.02995        1.78735        7.63797
H         -3.56810        0.77575        7.83668
H         -6.45435       -0.28868        7.50060
H         -5.55716       -0.21857        9.03544
H         -5.00133       -1.29758        7.73562
H         -3.52366       -1.71490        4.61372
H         -1.80424       -1.22206        4.52940
H         -3.64116       -1.73997        2.09730
H         -2.37626       -2.84192        2.68841
H         -1.92212       -1.26169        2.01219
H          3.88840        5.37907       -0.64205
H          5.33156        4.37664       -0.51035
H          5.01571        7.21265        0.64680
H          5.83651        6.79309       -0.85404
H          7.52760        5.44603        0.44701
H          6.71056        5.88123        1.95176
H          8.00959        7.89355        0.00702
H          8.68222        7.37175        1.56357
H          7.18497        8.32162        1.51932
