42

C          1.42107        0.87078       -0.53305
C          2.68883        0.09042       -0.17815
C          3.15969       -0.82048       -1.31613
C          4.42206       -1.63236       -0.95050
C          4.91619       -2.48813       -2.08678
C          4.55977       -3.80651       -2.13864
N          5.01690       -4.61445       -3.14513
C          5.76956       -4.19102       -4.17919
C          5.98105       -2.77858       -4.34210
C          5.67151       -1.95344       -3.19694
C          6.07335       -0.59832       -3.21573
C          6.70069       -0.06460       -4.32433
C          6.84361       -0.83180       -5.49283
C          6.45779       -2.16662       -5.54826
C          6.37143       -2.81905       -6.91109
C          5.27176       -2.14524       -7.75024
F          5.11800       -2.86431       -8.93501
N          6.32548       -5.18553       -4.96890
N          5.89445       -6.49600       -4.62539
N          7.69867       -5.11069       -5.29439
H          1.11301        1.52379        0.29353
H          0.58231        0.19371       -0.75136
H          1.57498        1.50550       -1.41807
H          2.51202       -0.51614        0.72564
H          3.49836        0.79284        0.08243
H          3.35207       -0.21609       -2.21807
H          2.35567       -1.52374       -1.59059
H          4.19648       -2.28094       -0.09098
H          5.22044       -0.95486       -0.61094
H          3.93925       -4.29586       -1.39067
H          4.89446       -5.63737       -3.13446
H          5.87858        0.03050       -2.34937
H          7.03388        0.97342       -4.31691
H          7.23559       -0.35655       -6.39354
H          6.09329       -3.87645       -6.84935
H          7.32694       -2.73959       -7.45245
H          5.52541       -1.10786       -8.01511
H          4.30827       -2.15566       -7.21562
H          5.51889       -6.93899       -5.46752
H          6.72597       -7.02336       -4.33966
H          8.16692       -4.40231       -4.72550
H          7.82105       -4.88627       -6.28392
