100

C         13.03118      -15.42252       16.97979
C         13.01474      -15.16421       15.47193
C         13.14953      -13.68206       15.10930
C         13.13462      -13.41487       13.60142
C         13.27062      -11.93322       13.23835
C         13.25255      -11.66495       11.73038
C         13.40008      -10.18296       11.37299
C         13.37649       -9.90628        9.86665
C         13.55127       -8.42304        9.52453
C         13.51683       -8.13855        8.01731
C         13.76357       -6.67116        7.71702
O         13.67822       -6.45580        6.28703
C         13.98548       -5.13623        5.88047
C         15.47727       -4.97252        5.60272
C         15.94783       -3.67724        4.95205
C         17.37417       -3.99876        4.45392
C         17.42477       -5.54644        4.29059
N         16.02754       -6.05470        4.65738
C         15.17676       -6.39604        3.47419
C         15.78247       -7.60307        2.74673
O         16.69887       -8.25131        3.21447
O         15.15981       -7.79854        1.58904
C         15.63313       -8.93311        0.76256
C         14.95281      -10.23880        1.13576
C         15.42425      -11.37576        0.21751
C         14.79318      -12.73000        0.55734
C         15.26412      -13.85784       -0.36623
C         14.65646      -15.22247       -0.03024
C         15.12500      -16.34524       -0.96142
C         14.52063      -17.70737       -0.61540
C         18.34553       -6.26177        5.22790
N         17.97255       -7.07071        6.16823
N         19.13057       -7.53700        6.78923
C         20.12678       -6.96285        6.15990
O         19.69147       -6.11889        5.13929
S         21.82967       -7.09489        6.38852
C         21.86072       -8.38823        7.69206
C         23.31702       -8.64704        8.07821
C         23.43069       -9.77243        9.11563
C         24.87579      -10.02696        9.54750
H         12.93141      -16.49257       17.20747
H         12.20487      -14.89730       17.48159
H         13.96929      -15.07092       17.43427
H         12.07931      -15.55832       15.04012
H         13.83130      -15.72935       14.99159
H         14.08595      -13.28630       15.54120
H         12.33261      -13.11439       15.58898
H         12.19824      -13.81101       13.17073
H         13.95155      -13.98348       13.12319
H         14.20808      -11.53793       13.66745
H         12.45540      -11.36428       13.71855
H         12.31116      -12.05198       11.30255
H         14.06315      -12.23908       11.24784
H         14.34410       -9.79930       11.79830
H         12.59337       -9.60846       11.86090
H         12.42564      -10.27102        9.44128
H         14.17455      -10.48897        9.37449
H         14.50894       -8.06813        9.94376
H         12.76168       -7.83788       10.02640
H         12.54132       -8.43188        7.59842
H         14.28227       -8.74422        7.50531
H         14.76214       -6.37094        8.08667
H         13.01050       -6.03173        8.21288
H         13.69915       -4.38855        6.64199
H         13.39134       -4.91532        4.97874
H         16.04049       -5.15453        6.53079
H         15.93622       -2.84685        5.66760
H         15.28427       -3.39748        4.11959
H         18.12830       -3.68189        5.18441
H         17.60610       -3.49852        3.50693
H         17.64196       -5.85063        3.25877
H         16.18135       -6.92474        5.21240
H         15.09004       -5.52990        2.80734
H         14.17883       -6.66897        3.84046
H         16.72324       -8.99690        0.87684
H         15.38406       -8.61826       -0.25800
H         13.86088      -10.11881        1.05770
H         15.18498      -10.48732        2.18299
H         16.52258      -11.46295        0.27855
H         15.19416      -11.12026       -0.83110
H         13.69425      -12.64602        0.50365
H         15.03016      -12.98989        1.60363
H         16.36487      -13.92906       -0.32114
H         15.01965      -13.59762       -1.41104
H         13.55511      -15.15387       -0.06973
H         14.90628      -15.48709        1.01249
H         16.22560      -16.40924       -0.92683
H         14.86941      -16.08153       -2.00148
H         14.79631      -18.01857        0.40314
H         14.86718      -18.48829       -1.30563
H         13.42219      -17.68050       -0.66722
H         21.37955       -9.28505        7.28042
H         21.26709       -8.02819        8.54195
H         23.76514       -7.72461        8.48195
H         23.90016       -8.91628        7.18204
H         22.99856      -10.69561        8.69632
H         22.81889       -9.51804        9.99650
H         25.50465      -10.30852        8.69046
H         24.93077      -10.84100       10.28187
H         25.31874       -9.13179       10.00700
