36

C          1.18522        0.12039        0.15388
C          2.69093       -0.00198        0.18864
O          3.20017        0.39376       -1.13953
C          4.52317        0.37415       -1.29375
O          5.35094        0.07283       -0.45790
C          4.88940        0.79514       -2.73331
C          6.35965        0.84152       -2.91923
N          7.16770        1.88329       -2.64915
C          8.49875        1.56549       -2.89802
C          8.47360        0.26209       -3.34146
N          7.15439       -0.16308       -3.34352
C          6.70478       -1.48533       -3.72466
C          6.31536       -2.38199       -2.72674
C          5.89117       -3.65733       -3.10660
C          5.86716       -4.01793       -4.45708
C          6.26745       -3.10739       -5.43982
C          6.69123       -1.82685       -5.07873
C          9.62238        2.46114       -2.71082
C          9.55654        3.72986       -2.27920
H          0.77945       -0.17222        1.13163
H          0.74625       -0.53815       -0.60645
H          0.87088        1.15227       -0.04829
H          3.02933       -1.02952        0.38033
H          3.15503        0.65842        0.93367
H          4.43740        1.77279       -2.95357
H          4.44406        0.07574       -3.43537
H          6.83874        2.77086       -2.28032
H          9.27889       -0.39505       -3.64567
H          6.35437       -2.08375       -1.67884
H          5.58743       -4.37210       -2.34196
H          5.53736       -5.01586       -4.74605
H          6.24817       -3.39092       -6.49195
H          7.00113       -1.10246       -5.83268
H         10.59148        2.02158       -2.95409
H          8.62195        4.23132       -2.01849
H         10.45980        4.32646       -2.16809
