80

C          2.25907       -1.32450        0.49776
C          3.73137       -1.18019        0.10359
C          4.06150        0.18238       -0.51582
C          5.53385        0.34187       -0.90893
C          5.85389        1.69659       -1.54932
C          7.32582        1.85823       -1.94392
C          7.63768        3.19957       -2.61648
C          9.10646        3.34814       -3.02442
C          9.42349        4.66509       -3.74378
C         10.90052        4.76585       -4.13810
C         11.26365        6.05110       -4.86447
O         12.64659        5.96480       -5.25283
C         13.16156        7.13698       -5.85997
C         14.63611        6.88120       -6.17947
C         15.41052        6.43708       -4.91145
C         15.45646        4.94869       -5.01620
N         15.15413        4.58873       -6.22739
C         14.81743        5.68711       -7.16260
C         15.91705        5.82853       -8.22474
C         15.54714        6.80260       -9.36011
C         16.62471        6.84318      -10.42125
C         16.55642        5.99777      -11.53809
C         17.57278        5.99966      -12.49649
C         18.67418        6.84661      -12.34795
C         18.75068        7.69584      -11.24036
C         17.73203        7.69319      -10.28499
C         15.73340        3.99133       -3.92327
C         14.42164        3.73906       -3.12340
C         14.61370        2.73004       -1.99161
C         13.31222        2.49542       -1.21163
N         13.54993        1.56204       -0.11222
H          2.05248       -2.31208        0.93237
H          1.59824       -1.20055       -0.37307
H          1.96871       -0.56739        1.24132
H          4.00258       -1.97760       -0.60925
H          4.36808       -1.33990        0.99051
H          3.78441        0.98178        0.19412
H          3.42731        0.33924       -1.40638
H          5.81392       -0.46619       -1.60777
H          6.16748        0.20022       -0.01549
H          5.57126        2.50626       -0.85391
H          5.22128        1.83407       -2.44380
H          7.61212        1.03617       -2.62388
H          7.95958        1.74187       -1.04663
H          7.36049        4.02456       -1.93747
H          6.99854        3.31573       -3.50898
H          9.38813        2.50381       -3.67877
H          9.74622        3.26072       -2.12777
H          9.15167        5.51457       -3.09416
H          8.79060        4.75278       -4.64321
H         11.16607        3.91394       -4.78686
H         11.52454        4.68155       -3.23394
H         11.11812        6.93317       -4.21277
H         10.63707        6.19187       -5.76532
H         13.06865        8.00861       -5.18200
H         12.61098        7.38109       -6.79024
H         15.06502        7.79545       -6.60816
H         14.94640        6.76281       -3.97113
H         16.45144        6.80464       -4.89321
H         15.15750        3.61298       -6.52715
H         13.86177        5.42669       -7.64470
H         16.11456        4.83828       -8.66722
H         16.85826        6.14653       -7.74656
H         15.38805        7.81367       -8.95298
H         14.59224        6.48829       -9.81082
H         15.69377        5.33927      -11.66628
H         17.50084        5.34299      -13.36423
H         19.46748        6.85166      -13.09579
H         19.60166        8.36805      -11.12413
H         17.79271        8.36964       -9.42846
H         16.50172        4.40791       -3.25521
H         16.11118        3.03945       -4.32652
H         13.64876        3.38749       -3.82300
H         14.05639        4.69590       -2.72053
H         15.38716        3.07232       -1.28666
H         14.96897        1.76974       -2.40409
H         12.51455        2.18165       -1.91769
H         12.98015        3.45047       -0.77322
H         13.65240        0.60563       -0.45392
H         12.76908        1.55937        0.54281
