31

F          4.25884        1.65547       -3.79678
C          4.47563        2.84013       -3.08088
C          5.47516        2.58222       -1.95385
P          4.98737        1.19283       -0.86385
C          5.24756       -0.45762       -1.60656
C          4.75733       -1.52518       -0.65491
C          5.64761       -2.12677        0.24629
C          5.18105       -3.09992        1.12862
C          3.83410       -3.46943        1.11997
C          2.92436       -2.88041        0.22879
C          3.40637       -1.89905       -0.65216
C          1.47955       -3.30488        0.19357
C          5.77434        1.34927        0.73040
C          5.06676        1.36474        1.86617
H          3.50201        3.18121       -2.69628
H          4.87314        3.59239       -3.77682
H          5.56443        3.47863       -1.32112
H          6.47445        2.35032       -2.35320
H          3.59885        1.31597       -0.62370
H          6.32258       -0.54634       -1.82485
H          4.70955       -0.44430       -2.56572
H          6.70334       -1.84899        0.24554
H          5.87118       -3.58081        1.82221
H          3.48320       -4.23979        1.80869
H          2.71547       -1.44128       -1.36649
H          1.23785       -3.97376        1.02801
H          1.25168       -3.84064       -0.73997
H          0.80275       -2.44030        0.24276
H          6.86563        1.40953        0.72703
H          3.97771        1.29163        1.88150
H          5.56370        1.44892        2.83365
