74

C          7.99388        7.24816        4.82864
O          7.85081        5.93909        4.29438
C          8.78739        5.02635        4.83650
C          8.50128        3.66561        4.21730
O          9.47237        2.75017        4.72403
C          9.28204        1.42883        4.26281
C         10.43072        0.60726        4.83117
O         10.19767       -0.76782        4.49117
C         11.24991       -1.61602        4.86918
C         10.83555       -3.01003        4.39598
N         11.81153       -4.06079        4.83235
C         13.18510       -3.96146        4.18485
C         13.73419       -5.39496        4.11975
C         12.70618       -6.27851        4.85079
C         11.33740       -5.57470        4.77708
C         10.47472       -5.85945        3.53243
C         11.01392       -5.66996        2.09604
C         11.82304       -6.80875        1.44668
C         11.05397       -8.12468        1.19874
S         11.53646       -9.40489        2.37287
O         12.93834       -9.71378        2.18368
O         11.03455       -9.04985        3.68284
O         10.64944      -10.65880        1.87135
C         10.50377       -5.78240        6.05904
C         10.09886       -7.23100        6.36543
C          9.38605       -7.34279        7.72684
C          8.97614       -8.76301        8.04196
C          9.80787       -9.59703        8.80168
C          9.44715      -10.92078        9.06363
C          8.24604      -11.43064        8.56525
C          7.40782      -10.60842        7.80743
C          7.77117       -9.28539        7.54974
H          7.23722        7.87576        4.34380
H          8.99713        7.66310        4.61983
H          7.82782        7.25905        5.92152
H          8.69486        4.96572        5.93893
H          9.82649        5.33338        4.60425
H          8.56505        3.73069        3.11483
H          7.47894        3.33626        4.48162
H          9.29005        1.38165        3.15600
H          8.31535        1.01371        4.61071
H         10.47214        0.72938        5.92858
H         11.39246        0.94825        4.40700
H         11.39881       -1.61668        5.97240
H         12.20583       -1.29620        4.40771
H         10.75731       -3.04135        3.30352
H          9.85657       -3.25432        4.82661
H         11.95194       -3.91350        5.84216
H         13.79587       -3.28554        4.79466
H         13.05146       -3.50645        3.19697
H         14.72110       -5.46401        4.59061
H         13.86055       -5.69561        3.07385
H         12.99329       -6.38448        5.90816
H         12.64561       -7.29241        4.44157
H          9.55277       -5.26646        3.63322
H         10.15312       -6.90292        3.65646
H         11.61077       -4.74885        2.00925
H         10.13625       -5.48566        1.45720
H         12.74278       -7.03136        2.00554
H         12.16901       -6.44539        0.46903
H         11.28392       -8.54311        0.21060
H          9.96353       -8.01724        1.28034
H         11.23908      -11.27743        1.39703
H          9.59098       -5.16386        6.01242
H         11.09668       -5.40690        6.91577
H         10.98136       -7.88789        6.36570
H          9.43474       -7.61979        5.58025
H          8.49700       -6.69060        7.72804
H         10.05280       -6.96688        8.52003
H         10.74556       -9.20345        9.20178
H         10.10284      -11.55324        9.66340
H          7.96050      -12.46254        8.77239
H          6.46363      -10.99610        7.42277
H          7.10467       -8.64582        6.96533
