84

C          0.19184        4.39048        1.88311
C          1.42041        3.55947        1.50670
C          2.63890        4.41945        1.15643
C          3.88811        3.61209        0.78555
C          5.06650        4.51434        0.41759
C          6.36968        3.78496        0.05729
C          7.41686        4.82406       -0.33996
C          8.80055        4.39147       -0.72385
C          9.19004        3.04481       -0.69044
C         10.46658        2.64172       -1.03076
N         11.37539        3.57580       -1.42816
C         11.05777        4.89017       -1.49715
C          9.78818        5.34183       -1.13930
C          9.59611        6.77598       -1.22044
N         10.48991        7.67706       -1.55469
N          9.88752        8.90450       -1.47918
C          8.64014        8.68328       -1.09454
O          8.38823        7.34866       -0.91433
S          7.38916        9.82996       -0.80442
C          6.01429        8.68663       -0.36228
C          4.76049        9.47068        0.01789
C          3.61526        8.50407        0.35850
C          2.32609        9.21679        0.77954
C          1.18441        8.25514        1.12506
C         -0.10027        8.97377        1.55431
C         -1.24445        8.02155        1.90848
C         12.77106        3.16797       -1.79238
C         13.88382        3.59935       -0.74277
C         13.73096        3.19958        0.78172
C         13.69011        1.69169        1.26021
C         14.85552        0.67209        0.93622
C         16.34601        0.93865        1.39295
C         16.72433        1.10717        2.91992
C         16.37823       -0.05762        3.92133
F         16.78406       -1.24332        3.43997
F         17.00427        0.18415        5.08222
F         15.05165       -0.10773        4.15157
F         18.06987        1.26488        2.93428
F         16.14796        2.24543        3.38758
F         17.05548       -0.10478        0.90168
F         16.76656        2.07387        0.77209
F         14.45781       -0.51106        1.46418
F         14.89599        0.53848       -0.41806
F         13.51132        1.74108        2.59682
F         12.56283        1.13862        0.70726
F         14.72382        3.83227        1.43442
F         12.53623        3.73501        1.19239
F         15.05486        3.15198       -1.22956
F         13.90118        4.96197       -0.75022
F         12.79219        1.84150       -1.97591
F         13.07291        3.77837       -2.95303
H         -0.66944        3.75140        2.11863
H         -0.10532        5.06069        1.06377
H          0.38862        5.01898        2.76430
H          1.17827        2.90786        0.65048
H          1.67953        2.88248        2.33800
H          2.87511        5.07983        2.00974
H          2.38050        5.09463        0.32177
H          3.65770        2.94132       -0.05998
H          4.16851        2.95691        1.62811
H          5.26875        5.20449        1.25638
H          4.77343        5.15816       -0.43097
H          6.18680        3.07953       -0.77061
H          6.71096        3.18886        0.92014
H          7.52289        5.55490        0.48106
H          7.01726        5.42797       -1.17181
H          8.47949        2.27852       -0.38616
H         10.79971        1.60985       -1.00518
H         11.82443        5.58298       -1.83682
H          6.35109        8.06389        0.47692
H          5.82501        8.04104       -1.23078
H          4.45850       10.13054       -0.81090
H          4.97105       10.12058        0.88206
H          3.93858        7.82451        1.16657
H          3.41126        7.86092       -0.51545
H          2.00348        9.89556       -0.02834
H          2.53477        9.86060        1.65110
H          1.51003        7.57309        1.93014
H          0.96958        7.60937        0.25494
H         -0.42152        9.65248        0.74650
H          0.12120        9.62067        2.41988
H         -1.51871        7.38718        1.05252
H         -2.14396        8.57399        2.21134
H         -0.96947        7.35420        2.73824
