69

C          2.07549       -0.89722       11.42276
C          3.53829       -1.24142       11.13156
C          3.80370       -1.58634        9.66161
C          5.26572       -1.93863        9.37046
C          5.54045       -2.28931        7.90444
C          7.00364       -2.65201        7.63207
C          7.29655       -3.00724        6.17081
C          8.75907       -3.39350        5.92750
C          9.06556       -3.76437        4.47083
C         10.54161       -4.08245        4.18941
C         11.05999       -5.32869        4.91988
C         12.54828       -5.59766        4.66066
C         13.09438       -6.73756        5.48852
O         14.46328       -6.91610        5.34146
C         14.83054       -8.18994        5.93840
C         13.52436       -9.02867        5.89679
N         12.53530       -8.16066        5.15300
C         12.28518       -8.50882        3.68540
C         13.58215       -8.64798        2.87299
O         13.14897       -8.72852        1.52218
C         11.38020       -9.74377        3.60519
C          9.99867       -9.56032        4.24024
C         15.40757       -8.02940        7.34883
C         16.70206       -7.26444        7.35750
C         17.86917       -7.77484        7.75577
H          1.92221       -0.65409       12.48310
H          1.40977       -1.73757       11.17527
H          1.74379       -0.02987       10.83264
H          3.85005       -2.09034       11.76393
H          4.18192       -0.39507       11.42616
H          3.49859       -0.73565        9.02688
H          3.15726       -2.43078        9.36303
H          5.56908       -2.78703       10.00978
H          5.91047       -1.09298        9.66865
H          5.24863       -1.43927        7.26325
H          4.89286       -3.13112        7.60162
H          7.29157       -3.50183        8.27714
H          7.65038       -1.81083        7.93828
H          7.03088       -2.15378        5.52341
H          6.64166       -3.83914        5.85686
H          9.01194       -4.23395        6.59779
H          9.41310       -2.55724        6.23260
H          8.76299       -2.93075        3.81747
H          8.43976       -4.62257        4.16750
H         11.16319       -3.21738        4.47796
H         10.68761       -4.21557        3.10484
H         10.44580       -6.19609        4.61339
H         10.90492       -5.21327        6.00503
H         13.13907       -4.71650        4.95673
H         12.76188       -5.75528        3.59267
H         12.79744       -6.61342        6.55076
H         15.59722       -8.61232        5.27348
H         13.12405       -9.20266        6.90355
H         13.63642       -9.99177        5.39116
H         11.61297       -8.24983        5.60111
H         11.73621       -7.64491        3.28367
H         14.13104       -9.56145        3.17278
H         14.23887       -7.77898        3.03845
H         13.92254       -8.83634        0.94762
H         11.89394      -10.61990        4.03515
H         11.27141       -9.95849        2.53353
H         10.02974       -9.41269        5.33432
H          9.38482      -10.45575        4.08358
H          9.45899       -8.70987        3.79992
H         15.56198       -9.03633        7.77093
H         14.65591       -7.52917        7.98671
H         16.65408       -6.23080        7.00301
H         17.95585       -8.80033        8.12245
H         18.78358       -7.18228        7.73977
