58

C          6.93410        1.21817       -5.78543
C          7.30006        1.43341       -4.31252
C          6.05522        1.45640       -3.44055
O          6.41439        1.57379       -2.01206
C          6.44745        2.79587       -1.49108
O          6.22759        3.85164       -2.04738
C          6.76700        2.69714        0.01907
N          7.16200        3.99815        0.54200
C          6.34575        5.02642        0.55738
S          6.99963        6.53457        0.92690
C          8.73364        5.84436        0.81201
C          8.57433        4.30411        0.89768
C          8.93461        3.66324        2.25887
C         10.45928        3.76074        2.42943
O         11.20202        4.21525        1.57709
O         10.83829        3.26992        3.61485
C         12.28231        3.24596        3.89756
C         12.90299        1.95034        3.41298
C          8.15274        4.20450        3.46584
C          9.39999        6.33953       -0.47100
C          9.57049        7.86048       -0.53144
C         10.21132        8.33870       -1.83687
C         10.34952        9.86243       -1.91811
C         11.09611       10.33551       -3.17092
N         12.48048        9.84023       -3.17146
H          7.83931        1.18194       -6.40426
H          6.30143        2.03135       -6.16825
H          6.39415        0.27201       -5.93314
H          7.84398        2.38319       -4.19377
H          7.96610        0.62922       -3.96444
H          5.50378        0.50933       -3.48851
H          5.38692        2.28937       -3.69403
H          7.56913        1.97218        0.19476
H          5.86933        2.33020        0.53874
H          5.28433        4.90348        0.34106
H          9.26336        6.22854        1.69327
H          9.21464        3.85573        0.12373
H          8.72481        2.58081        2.18118
H         12.33012        3.34271        4.98861
H         12.73820        4.12563        3.42653
H         12.40035        1.08127        3.85646
H         13.95906        1.92056        3.71434
H         12.86299        1.87170        2.31900
H          8.37745        5.26122        3.66423
H          8.41679        3.63794        4.36482
H          7.06931        4.10614        3.31547
H          8.82613        5.98106       -1.34273
H         10.38713        5.84992       -0.51019
H         10.18373        8.18992        0.32521
H          8.58698        8.35144       -0.41184
H          9.60806        7.98381       -2.69064
H         11.20874        7.88710       -1.95417
H         10.88270       10.23311       -1.02422
H          9.35416       10.33667       -1.89730
H         11.01529       11.43717       -3.23954
H         10.59791        9.92940       -4.06583
H         13.04497       10.36217       -2.49900
H         12.91478        9.98581       -4.08247
