71

C          0.95904       -1.02682        1.47263
C          2.47866       -0.86030        1.41860
C          2.97640        0.44293        2.05310
C          4.49992        0.58842        2.00891
C          5.03369        1.87618        2.64556
C          6.56238        1.96223        2.60510
C          7.15277        3.22451        3.24279
C          8.68401        3.23916        3.18967
C          9.33981        4.45253        3.85745
C         10.87066        4.37157        3.82252
C         11.57472        5.54606        4.51652
C         13.08072        5.35921        4.50218
O         13.71306        6.48086        5.18521
C         15.09259        6.36455        5.24277
N         15.58356        7.66780        5.84077
C         15.18876        7.82289        7.30438
C         15.13900        9.28767        7.74770
C         14.72311        9.38507        9.20346
C         15.63626        9.07742       10.22368
C         15.25267        9.15042       11.56408
C         13.95173        9.53810       11.89894
C         13.03816        9.85172       10.88964
C         13.42095        9.77204        9.54786
C         17.06067        7.85819        5.60073
O         17.18548        8.12616        4.24557
C         18.54650        8.45274        3.84278
C         18.54666        8.71267        2.35304
H          0.64133       -1.97129        1.00984
H          0.44910       -0.20879        0.94227
H          0.59435       -1.02535        2.51057
H          2.81751       -0.90269        0.36961
H          2.96040       -1.71342        1.92583
H          2.63305        0.49208        3.10156
H          2.50816        1.30142        1.54010
H          4.83844        0.53722        0.95899
H          4.95864       -0.27943        2.51513
H          4.68949        1.93778        3.69286
H          4.59954        2.75047        2.12996
H          6.89953        1.89708        1.55555
H          6.98403        1.07574        3.11113
H          6.82068        3.29549        4.29331
H          6.75375        4.11933        2.73446
H          9.00946        3.18623        2.13595
H          9.06507        2.31997        3.66866
H          9.00113        4.52414        4.90544
H          9.00491        5.37956        3.36144
H         11.20600        4.31114        2.77293
H         11.18603        3.42703        4.29876
H         11.23164        5.62693        5.56013
H         11.31938        6.49359        4.01649
H         13.46916        5.31494        3.46875
H         13.36472        4.42573        5.02028
H         15.56382        6.27189        4.24890
H         15.44393        5.55403        5.91048
H         15.10555        8.40892        5.30084
H         15.91386        7.23846        7.88693
H         14.20129        7.35615        7.39746
H         14.41564        9.83331        7.12091
H         16.12035        9.76938        7.61268
H         16.66201        8.79273        9.97395
H         15.97262        8.91354       12.34810
H         13.65443        9.60386       12.94588
H         12.02629       10.16736       11.14560
H         12.70478       10.02947        8.76410
H         17.56729        6.92714        5.92048
H         17.39588        8.69504        6.23807
H         19.20573        7.60741        4.10563
H         18.87551        9.34133        4.40970
H         18.22123        7.82422        1.79707
H         19.56426        8.96500        2.02754
H         17.88796        9.55257        2.09816
