62

N          0.76356        1.29093       -0.26518
C          2.22221        1.01380       -0.32497
C          2.63063       -0.21636        0.51120
C          2.20770       -1.61177       -0.01437
C          0.72732       -2.09162        0.02450
N          0.02330       -1.20732       -1.02158
C         -1.35643       -1.59571       -1.44235
C         -1.29236       -3.02536       -1.96094
N         -0.72977       -3.85954       -0.91545
C          0.64887       -3.55532       -0.52821
C          1.13462       -4.68441        0.40381
C          2.64422       -4.80871        0.65223
C          3.03973       -6.20163        1.15168
N          4.48979       -6.32368        1.23022
C          4.92520       -7.63473        1.74006
C          6.42834       -7.76727        1.79805
C          7.10421       -8.71851        1.02564
C          8.49009       -8.87940        1.09781
C          9.23124       -8.06595        1.95628
C          8.58549       -7.10373        2.73453
C          7.19764       -6.96070        2.65750
O          6.52320       -6.02501        3.41829
C          0.16649       -1.80562        1.44462
C         -1.13792       -2.26350        2.10008
C         -2.32392       -2.99010        1.60417
O         -1.32360       -3.64639        2.40751
O          4.04572       -0.20409        0.68102
H          0.52657        2.05153       -0.90594
H          0.50948        1.62824        0.66675
H          2.82062        1.86256        0.03777
H          2.49168        0.85354       -1.38240
H          2.24643       -0.07709        1.53507
H          2.78815       -2.32316        0.58285
H          2.58177       -1.72447       -1.04936
H          0.61545       -1.26504       -1.86354
H          0.11180       -0.16349       -0.69343
H         -1.67733       -0.88743       -2.21786
H         -2.01648       -1.50131       -0.57381
H         -0.70440       -3.03724       -2.90884
H         -2.30433       -3.37463       -2.20616
H         -0.82572       -4.85166       -1.12314
H          1.31455       -3.55103       -1.42687
H          0.81360       -5.61549       -0.09514
H          0.56761       -4.64720        1.34413
H          2.98349       -4.07158        1.39960
H          3.21093       -4.61003       -0.27226
H          2.67505       -6.95896        0.43531
H          2.52242       -6.41317        2.11502
H          4.86254       -5.60667        1.85691
H          4.53104       -8.40744        1.06200
H          4.49951       -7.84704        2.74545
H          6.52032       -9.35388        0.35618
H          8.98685       -9.63456        0.48924
H         10.31393       -8.17555        2.02466
H          9.15942       -6.46232        3.40902
H          7.16313       -5.57965        3.99701
H          0.16154       -0.71164        1.56407
H          0.95194       -2.15076        2.13792
H         -1.32898       -1.61670        2.96842
H         -2.35602       -3.35381        0.57820
H         -3.28073       -2.82107        2.10854
H          4.47899       -0.38331       -0.17059
