53

C         15.51191       -3.72180       -0.23652
C         14.63057       -2.87543       -1.15762
C         13.13138       -3.13560       -0.96578
C         12.25212       -2.28764       -1.89207
C         10.76886       -2.56559       -1.71532
O         10.03329       -1.72996       -2.62477
C          8.63895       -1.97585       -2.61622
C          7.96421       -0.95697       -3.53755
C          8.74174       -0.71427       -4.87202
C          9.04628       -2.01643       -5.50876
N          8.31813       -2.25523       -6.54949
C          7.37804       -1.13813       -6.84497
C          7.96792        0.01850       -6.01820
C          6.94538        1.09022       -5.63081
C          7.58804        2.33894       -5.02932
O          8.54383        2.82868       -5.95212
C          9.14095        4.06687       -5.53947
C         10.12730        4.50815       -6.60217
C          8.32434       -3.51069       -7.33803
C          7.04315       -4.19154       -7.25132
C          5.97656       -4.75361       -7.18242
H         16.57737       -3.51082       -0.39825
H         15.35658       -4.79700       -0.40966
H         15.29154       -3.52212        0.82246
H         14.89994       -3.07092       -2.20953
H         14.83654       -1.80547       -0.98672
H         12.85937       -2.93717        0.08518
H         12.92429       -4.20680       -1.13564
H         12.52661       -2.47846       -2.94342
H         12.43592       -1.21656       -1.70961
H         10.44352       -2.35438       -0.67937
H         10.53864       -3.62931       -1.92470
H          8.21969       -1.88474       -1.59716
H          8.42788       -3.01478       -2.95218
H          7.89299        0.01534       -3.03231
H          6.93875       -1.29590       -3.74774
H          9.68009       -0.20611       -4.60820
H          9.76751       -2.75248       -5.14603
H          6.36991       -1.45466       -6.53293
H          7.36074       -0.95353       -7.92684
H          8.73161        0.51311       -6.63806
H          6.19177        0.69449       -4.93247
H          6.40266        1.39094       -6.54054
H          8.07146        2.11630       -4.05497
H          6.80471        3.09531       -4.83222
H          9.64386        3.92576       -4.56312
H          8.34693        4.82425       -5.39725
H         10.92636        3.76576       -6.73285
H         10.59087        5.46051       -6.31265
H          9.62405        4.65232       -7.56746
H          9.14261       -4.14080       -6.95989
H          8.55692       -3.24232       -8.38171
H          5.03859       -5.26918       -7.12571
