72

C          1.21504        3.57413       -3.68299
C          0.46598        3.90886       -2.38829
C         -0.10991        2.69698       -1.64182
C          0.97757        1.72225       -1.16456
N          0.45436        0.70188       -0.23898
C          0.37085        0.96690        1.08160
S          0.92397        2.39140        1.77508
S         -0.36891       -0.36131        2.04913
C         -0.40995        0.36642        3.70527
C         -1.63901        1.25794        3.99295
C         -1.21071        2.49024        4.79849
C         -2.26036        3.49353        5.32226
C         -3.24376        2.79924        6.29306
N         -4.60683        3.42517        6.03053
C         -4.60928        3.83144        4.56200
C         -3.19100        4.37076        4.39075
C         -2.75543        4.95391        2.99872
C         -1.41459        5.75326        3.22150
C         -0.76877        6.24807        1.91582
C         -1.52795        6.92908        4.20718
C         -2.53180        3.84047        1.92541
O         -2.63220        4.30458        0.57836
C         -3.89149        5.88970        2.53149
Br        -5.23720        2.24611        3.58626
C          0.04255       -0.56957       -0.85774
C          1.21612       -1.47322       -1.26816
C          2.12521       -1.93023       -0.12186
C          3.30311       -2.77641       -0.61147
H          1.52969        4.48828       -4.20412
H          0.58157        3.00050       -4.37641
H          2.12319        2.98258       -3.49731
H         -0.36427        4.59616       -2.61431
H          1.13455        4.45868       -1.70459
H         -0.82543        2.16289       -2.29021
H         -0.67431        3.05154       -0.76759
H          1.77404        2.26964       -0.64314
H          1.42994        1.18578       -2.00889
H          0.52353        0.94077        3.80351
H         -0.36270       -0.49825        4.38203
H         -2.40499        0.66027        4.51316
H         -2.08574        1.56310        3.04113
H         -0.46848        3.03365        4.19698
H         -0.65725        2.15098        5.69184
H         -1.67599        4.22459        5.90004
H         -3.00726        2.92483        7.35488
H         -3.35064        1.73107        6.07105
H         -4.73525        4.26600        6.61081
H         -5.37980        2.77632        6.23295
H         -5.39446        4.57586        4.40516
H         -3.29684        5.30609        4.97941
H         -0.70394        5.02756        3.65162
H         -1.40112        6.97644        1.38923
H         -0.54704        5.43130        1.22036
H          0.17911        6.74896        2.15450
H         -2.16806        7.73394        3.81825
H         -0.53394        7.36443        4.37352
H         -1.90875        6.64936        5.20245
H         -3.23938        3.01498        2.08150
H         -1.51521        3.43086        2.02199
H         -3.55723        4.25776        0.29508
H         -4.17864        6.61056        3.31065
H         -4.79477        5.33110        2.23951
H         -3.57904        6.46451        1.65337
H         -0.55995       -0.31796       -1.74461
H         -0.62867       -1.09685       -0.16612
H          1.82181       -0.96145       -2.03489
H          0.78056       -2.35062       -1.77431
H          1.53295       -2.50221        0.61032
H          2.50762       -1.04976        0.41941
H          2.95965       -3.68059       -1.13503
H          3.93663       -3.09838        0.22565
H          3.93854       -2.21124       -1.30923
