95

C         -1.68856        8.27170       -5.78669
C         -0.81452        7.66840       -6.88943
C         -1.62560        7.24950       -8.11986
C         -0.80777        6.65378       -9.27641
N          0.09068        5.55026       -8.87739
C         -0.41166        4.31553       -8.64447
S         -2.02232        3.91167       -8.86176
S          0.84385        3.12921       -8.12930
C         -0.12574        1.72937       -7.50223
C         -0.17945        1.66718       -5.96722
C         -0.82278        2.88186       -5.28526
C         -2.33435        2.99662       -5.46551
C         -2.92060        4.36940       -5.07959
N         -4.21608        4.02661       -4.45982
C         -4.18136        2.71402       -4.09377
N         -5.16599        2.12936       -3.36700
C         -5.10923        0.75668       -2.82583
C         -4.66561       -0.38968       -3.76260
O         -3.22614       -0.49561       -3.85944
C         -2.50385       -0.94810       -2.67427
C         -1.28859       -0.08663       -2.44869
C         -1.37563        1.10126       -1.70487
C         -0.25159        1.90301       -1.50569
C          0.97916        1.52294       -2.05196
C          1.07920        0.34176       -2.79125
C         -0.04965       -0.45783       -2.98795
C         -5.31928       -1.71181       -3.36203
C         -6.28887        2.94493       -2.87197
C         -6.16289        3.36089       -1.39389
C         -4.87377        4.14283       -1.14987
O         -4.55385        5.08375       -1.88554
N         -4.11561        3.69611       -0.10593
C         -2.84485        4.13020        0.34863
C         -2.15036        5.21540       -0.20980
C         -0.89201        5.54780        0.29818
C         -0.31964        4.82323        1.34624
C         -1.01905        3.74641        1.89990
C         -2.27394        3.40062        1.40500
N         -3.10943        2.09845       -4.58508
C          1.52883        5.86592       -8.76417
C          2.36733        5.50784      -10.00168
C          1.98890        6.24680      -11.28988
C          2.90099        5.88110      -12.46360
H         -1.09097        8.55928       -4.91076
H         -2.45528        7.55832       -5.44809
H         -2.21426        9.17085       -6.13880
H         -0.27579        6.79253       -6.48987
H         -0.03873        8.39703       -7.17982
H         -2.16195        8.12185       -8.52846
H         -2.39878        6.52415       -7.82604
H         -0.17064        7.42550       -9.72609
H         -1.48843        6.27576      -10.05155
H          0.36201        0.83289       -7.90709
H         -1.11873        1.82245       -7.97435
H          0.84071        1.55236       -5.57311
H         -0.70702        0.73988       -5.68487
H         -0.36726        3.79627       -5.69928
H         -0.59218        2.87447       -4.20992
H         -2.59753        2.78283       -6.51576
H         -3.05751        5.00551       -5.96168
H         -2.28222        4.89503       -4.34892
H         -4.56180        4.67451       -3.74007
H         -6.13667        0.53831       -2.50678
H         -4.48947        0.73399       -1.91264
H         -4.96828       -0.14373       -4.79247
H         -2.21920       -1.99802       -2.83911
H         -3.16078       -0.91138       -1.79238
H         -2.33023        1.40464       -1.26824
H         -0.33152        2.81799       -0.91952
H          1.86086        2.14459       -1.89228
H          2.03924        0.03739       -3.20949
H          0.03241       -1.38480       -3.55920
H         -5.15298       -1.96138       -2.30457
H         -4.91630       -2.52592       -3.97651
H         -6.40380       -1.66475       -3.52848
H         -7.20792        2.35644       -3.00525
H         -6.38829        3.82894       -3.51109
H         -6.24298        2.48499       -0.73307
H         -7.01158        4.01980       -1.15330
H         -4.51587        2.93617        0.43645
H         -2.59638        5.78841       -1.01717
H         -0.35758        6.39502       -0.13259
H          0.66208        5.09598        1.73254
H         -0.58827        3.17323        2.72082
H         -2.81745        2.55811        1.83993
H         -2.93346        1.08766       -4.45273
H          1.92532        5.34582       -7.87915
H          1.59925        6.94256       -8.55984
H          2.31975        4.42096      -10.17309
H          3.41754        5.72747       -9.74491
H          2.02922        7.33606      -11.11701
H          0.94563        6.01374      -11.55762
H          3.94981        6.13485      -12.25072
H          2.60913        6.41474      -13.37750
H          2.85843        4.80360      -12.68010
