99

C          0.54299       -0.63507       -0.19147
C          2.05165       -0.78837        0.01279
C          2.64414        0.27363        0.94388
C          4.15317        0.13247        1.16193
C          4.73822        1.20208        2.08837
C          6.24561        1.06360        2.31961
C          6.82144        2.14624        3.23666
C          8.32248        2.00082        3.50106
C          8.88850        3.09832        4.40687
C         10.37520        2.92716        4.72915
C         10.93916        4.04024        5.61706
C         12.40947        3.83798        5.99241
C         12.97662        4.95444        6.87397
C         14.43459        4.72375        7.28037
C         15.00539        5.83219        8.17002
C         16.44922        5.56759        8.60685
C         17.01436        6.66858        9.50791
C         18.45148        6.35832        9.98700
C         18.98564        7.41676       10.90757
C         18.48238        7.50405       12.23452
C         18.89833        8.46359       13.13570
C         18.29654        8.52808       14.51717
C         17.18957        9.59687       14.66159
C         16.56547        9.59901       16.05716
C         19.89238        9.40368       12.69139
C         20.42159        9.34127       11.34489
C         19.94036        8.33473       10.48292
C         21.41982       10.29959       10.94059
C         21.83882       11.24106       11.85240
N         21.31320       11.25423       13.11672
C         20.38349       10.39231       13.54812
C         21.97711       10.24283        9.53796
C         23.01520       11.28115        9.10686
O         23.44925       12.19726        9.78204
O         23.36898       11.02674        7.83908
C         24.35286       11.93138        7.22694
C         25.77575       11.43955        7.43956
C         26.79071       12.34457        6.72762
C         28.23383       11.87156        6.91146
H          0.14438       -1.40874       -0.86226
H          0.29895        0.34410       -0.62994
H          0.00297       -0.71195        0.76409
H          2.56379       -0.74051       -0.96312
H          2.27001       -1.78998        0.42031
H          2.12907        0.22881        1.91978
H          2.42722        1.27616        0.53449
H          4.66851        0.17334        0.18623
H          4.36981       -0.86765        1.57678
H          4.21720        1.16499        3.06134
H          4.52471        2.20147        1.66991
H          6.76924        1.09123        1.34792
H          6.45876        0.06924        2.74994
H          6.28167        2.13123        4.20000
H          6.62341        3.13895        2.79536
H          8.86703        2.00271        2.54042
H          8.51736        1.01444        3.95777
H          8.31451        3.12301        5.34998
H          8.72821        4.08158        3.93041
H         10.95251        2.88225        3.78904
H         10.52882        1.95270        5.22536
H         10.33606        4.11044        6.53941
H         10.82147        5.01097        5.10426
H         13.01519        3.75581        5.07305
H         12.52023        2.87168        6.51502
H         12.35691        5.05141        7.78277
H         12.89103        5.91930        6.34404
H         15.05712        4.62638        6.37397
H         14.51518        3.75761        7.80866
H         14.36940        5.94462        9.06551
H         14.95256        6.79654        7.63542
H         17.09053        5.45758        7.71561
H         16.49794        4.60192        9.13913
H         16.35815        6.80078       10.38430
H         17.01202        7.63257        8.97296
H         19.11426        6.24624        9.11645
H         18.44406        5.39072       10.51545
H         17.73758        6.77116       12.55456
H         19.07614        8.70083       15.27718
H         17.86668        7.54345       14.75283
H         16.41515        9.40796       13.90201
H         17.59896       10.59405       14.43009
H         16.10699        8.62738       16.28976
H         15.78106       10.36275       16.13513
H         17.31412        9.80784       16.83550
H         20.32413        8.25845        9.46595
H         22.58506       11.99495       11.60997
H         21.65567       11.96399       13.76254
H         20.05245       10.50952       14.57738
H         21.14983       10.30433        8.81221
H         22.42545        9.25140        9.36105
H         24.20389       12.93563        7.64481
H         24.07995       11.92954        6.16407
H         25.86378       10.40865        7.06126
H         25.99584       11.41260        8.51859
H         26.68791       13.37488        7.10598
H         26.55055       12.38651        5.65240
H         28.51479       11.85250        7.97449
H         28.93800       12.53492        6.39310
H         28.37486       10.85726        6.51080
