63

C          0.68798        0.11792       -0.10673
O          2.08293        0.26360        0.18831
C          2.73915       -0.96418        0.34387
C          4.18834       -0.72754        0.65167
C          4.71874        0.56144        0.77688
C          6.06281        0.71091        1.05226
N          6.91136       -0.34110        1.20874
C          6.40529       -1.61624        1.13580
C          5.05924       -1.80478        0.85036
C          7.21899       -2.89514        1.42122
C          7.69832       -3.75414        0.15964
C          8.58790       -3.06939       -0.96000
C         10.15274       -2.98117       -0.72317
C         11.02143       -4.26586       -1.10458
C         11.82436       -4.23737       -2.47523
C         13.03188       -3.23251       -2.75289
C         14.07662       -2.98949       -1.60776
F         14.58770       -4.15039       -1.17135
F         15.06862       -2.22264       -2.08391
F         13.49433       -2.34372       -0.57428
F         13.69669       -3.75138       -3.81244
F         12.53803       -2.02188       -3.11960
F         12.32788       -5.48913       -2.59248
F         10.91983       -4.03322       -3.47052
F         11.88831       -4.49813       -0.09606
F         10.19090       -5.33793       -1.19262
F         10.58639       -1.91458       -1.43977
F         10.35464       -2.69794        0.59230
F          8.34780       -3.67304       -2.13732
F          8.12767       -1.77648       -1.06600
F          8.32126       -4.84365        0.65200
F          6.55418       -4.14646       -0.46724
F          8.26744       -2.67608        2.25438
F          6.37674       -3.74521        2.08318
C          8.35743        0.01621        1.44810
C          8.94841        0.94505        0.38201
C         10.46631        1.05466        0.58039
C         11.14073        1.92434       -0.49780
N         12.58622        1.89502       -0.39636
C         13.34355        2.63138        0.49642
C         14.65447        2.20342        0.40237
C         14.69464        1.16700       -0.57156
C         13.40572        0.99336       -1.04291
H          0.28447        1.13104       -0.20041
H          0.16468       -0.41137        0.70711
H          0.53784       -0.42660       -1.05375
H          2.66740       -1.59081       -0.57189
H          2.29609       -1.56839        1.16578
H          4.08313        1.43706        0.66117
H          6.51909        1.69232        1.15711
H          4.68494       -2.82587        0.80269
H          8.93143       -0.90595        1.48323
H          8.40122        0.46839        2.44938
H          8.49721        1.94851        0.42950
H          8.73119        0.53975       -0.61730
H         10.92250        0.05446        0.54766
H         10.69533        1.47106        1.57386
H         10.79985        2.96843       -0.42248
H         10.86385        1.56617       -1.50089
H         12.88749        3.40418        1.10750
H         15.49406        2.60741        0.95845
H         15.57143        0.62531       -0.91097
H         13.00534        0.32488       -1.79795
