95

C          0.42308        0.29374       -0.18480
C          1.92867        0.38959       -0.44282
C          2.53341       -0.90758       -0.99160
C          4.04155       -0.82219       -1.24607
C          4.65727       -2.13625       -1.73681
C          6.16726       -2.04770       -1.97920
C          6.80613       -3.38316       -2.37325
C          8.31564       -3.28029       -2.61612
C          8.99221       -4.63533       -2.84200
C         10.50075       -4.51938       -3.09920
C         11.19991       -5.88514       -3.14478
C         12.67044       -5.82042       -3.55511
N         13.44012       -4.85746       -2.64545
C         14.85834       -4.64403       -3.10975
C         15.54591       -5.99984       -3.21065
O         14.80997       -6.90409       -4.02170
C         13.44308       -7.17368       -3.61508
C         13.34350       -8.08862       -2.36244
C         13.45406       -7.50449       -0.94224
C         13.29966       -8.62591        0.09345
S         13.41489       -7.89039        1.74763
C         13.16941       -9.30603        2.79197
S         13.08720      -10.85424        2.26406
N         13.08369       -8.93140        4.13706
C         12.88823       -7.64730        4.66665
N         12.85449       -7.66008        5.97022
C         13.03759       -8.99056        6.33665
C         13.17071       -9.78982        5.23773
C         12.85363       -7.94256       -4.76785
N         12.04346       -8.95538       -4.71688
N         11.69351       -9.26571       -6.02083
C         12.32757       -8.40431       -6.78277
O         13.08405       -7.51042       -6.05225
S         12.28071       -8.37482       -8.50963
C         13.32220       -6.92626       -8.93076
C         13.41942       -6.86784      -10.45749
C         14.24594       -5.67019      -10.94321
C         14.34924       -5.60763      -12.47152
C         15.15597       -4.41040      -12.98375
C         15.25115       -4.34910      -14.51288
C         16.04581       -3.14412      -15.02250
H          0.02208        1.23496        0.21552
H          0.19178       -0.50046        0.54067
H         -0.12745        0.06551       -1.10960
H          2.44677        0.66158        0.49262
H          2.13115        1.21264       -1.14915
H          2.01822       -1.18348       -1.92876
H          2.32947       -1.73031       -0.28326
H          4.54972       -0.51038       -0.31615
H          4.24444       -0.02392       -1.98186
H          4.15437       -2.45552       -2.66641
H          4.45397       -2.93007       -0.99637
H          6.65934       -1.67055       -1.06502
H          6.36978       -1.29607       -2.76237
H          6.31443       -3.77937       -3.27843
H          6.61556       -4.12382       -1.57675
H          8.78713       -2.78400       -1.74883
H          8.50453       -2.62197       -3.48198
H          8.52366       -5.15564       -3.69435
H          8.82315       -5.27927       -1.96181
H         10.92413       -3.88685       -2.29310
H         10.67075       -3.97664       -4.04593
H         10.70007       -6.53241       -3.88063
H         11.08386       -6.39786       -2.17769
H         12.75605       -5.35963       -4.55180
H         13.43327       -5.23530       -1.68474
H         12.92060       -3.96836       -2.61517
H         15.36132       -3.97752       -2.39684
H         14.79625       -4.15319       -4.08967
H         15.74559       -6.41455       -2.20744
H         16.51647       -5.86966       -3.70702
H         14.12443       -8.85051       -2.50253
H         12.39172       -8.63253       -2.44545
H         12.65601       -6.76437       -0.74678
H         14.42134       -7.00545       -0.76891
H         14.08783       -9.38366       -0.01309
H         12.33047       -9.13449       -0.00474
H         12.74376       -6.77846        4.03152
H         13.06082       -9.28583        7.38094
H         13.32309      -10.85299        5.10337
H         14.31105       -7.05576       -8.47077
H         12.85128       -6.02006       -8.52494
H         12.40647       -6.81446      -10.88942
H         13.86896       -7.80269      -10.82985
H         15.25893       -5.72053      -10.50754
H         13.79463       -4.73528      -10.56742
H         13.33350       -5.57465      -12.90237
H         14.80460       -6.54202      -12.84276
H         16.17384       -4.44322      -12.55632
H         14.70105       -3.47573      -12.61005
H         14.23352       -4.32684      -14.93792
H         15.71237       -5.27976      -14.88430
H         15.58698       -2.19723      -14.70072
H         16.09582       -3.13143      -16.11963
H         17.07876       -3.15642      -14.64393
