85

C          0.84347        5.95385       -9.75184
C          2.34081        6.26904       -9.80001
C          2.99190        6.34786       -8.41426
C          4.49455        6.64439       -8.45723
C          5.16003        6.66161       -7.07697
C          6.67158        6.91092       -7.12776
C          7.36354        6.76854       -5.76812
C          8.88512        6.94867       -5.82886
C          9.59227        6.57861       -4.52073
C         11.12311        6.63696       -4.60376
C         11.80998        5.95700       -3.41380
C         13.31451        5.82736       -3.53813
O         13.95628        7.12619       -3.29699
C         15.06027        7.40887       -4.03127
S         14.61399        8.55663       -5.52044
C         14.21388       10.07488       -4.56708
C         14.51103       11.32985       -5.37485
O         14.04391       11.11930       -6.68938
C         14.38433       12.19371       -7.58992
C         14.01045       11.79046       -9.00504
C         14.40350       12.85863      -10.03338
C         14.04986       12.47171      -11.47465
C         14.47830       13.52556      -12.49855
C         16.28771        8.80550       -6.19741
C         16.58999        7.70266       -7.22930
C         18.07057        7.30138       -7.25050
S         18.56567        6.37353       -5.76880
C         19.43398        7.57161       -4.78286
S         19.67270        9.15399       -5.17482
N         19.90146        6.99838       -3.60142
C         20.47531        7.69841       -2.52549
N         20.76209        6.90562       -1.53403
C         20.38507        5.62827       -1.94107
C         19.85109        5.65412       -3.19603
H          0.40947        5.90265      -10.75981
H          0.29049        6.72214       -9.19112
H          0.65451        4.98795       -9.26002
H          2.50047        7.22266      -10.33136
H          2.85945        5.50079      -10.39859
H          2.82503        5.39487       -7.88131
H          2.48083        7.12082       -7.81356
H          4.66364        7.61248       -8.96112
H          4.99401        5.88658       -9.08694
H          4.97135        5.69586       -6.57545
H          4.67997        7.42771       -6.44340
H          6.86754        7.91481       -7.54373
H          7.12900        6.19710       -7.83588
H          7.13894        5.76781       -5.35881
H          6.93260        7.48931       -5.05173
H          9.12746        7.98861       -6.10991
H          9.28742        6.31494       -6.63912
H          9.29536        5.55252       -4.24181
H          9.23749        7.22574       -3.70069
H         11.45405        7.68710       -4.69091
H         11.44848        6.13486       -5.53269
H         11.41462        4.93295       -3.30774
H         11.57087        6.46910       -2.46779
H         13.60120        5.47171       -4.54248
H         13.72595        5.13698       -2.78653
H         15.55705        6.54539       -4.50293
H         15.77904        8.01003       -3.45463
H         14.76865       10.06036       -3.62001
H         13.14114        9.96034       -4.36120
H         15.59747       11.54878       -5.36723
H         14.00758       12.18536       -4.88401
H         15.47058       12.39759       -7.51234
H         13.85011       13.11048       -7.28051
H         12.92676       11.59808       -9.05045
H         14.51044       10.83710       -9.24719
H         15.48847       13.05246       -9.96608
H         13.90942       13.81295       -9.78200
H         12.96276       12.30239      -11.54829
H         14.52419       11.50560      -11.71752
H         13.99529       14.49386      -12.30255
H         14.20966       13.22334      -13.51941
H         15.56603       13.68748      -12.47580
H         17.00178        8.81102       -5.36066
H         16.28676        9.79967       -6.65632
H         16.29571        8.05054       -8.23040
H         15.98325        6.80393       -7.03413
H         18.74317        8.17009       -7.32522
H         18.26792        6.62305       -8.09099
H         20.62857        8.77118       -2.57822
H         20.53248        4.76677       -1.29712
H         19.48493        4.86517       -3.84143
