73

C          0.58698       -0.99429        0.35041
C          2.11445       -0.92083        0.28455
C          2.80424       -2.19946        0.77414
C          4.33352       -2.12074        0.73388
C          5.02055       -3.40930        1.20146
C          6.54989       -3.28607        1.21491
C          7.24335       -4.55079        1.73294
S          9.02892       -4.14541        1.88194
C          9.70323       -5.52602        2.66545
N         10.83700       -5.53084        3.33272
N         11.05301       -6.83537        3.72845
C         10.04574       -7.53479        3.29339
O          9.12911       -6.78473        2.59775
C          9.89297       -8.99593        3.47553
N          8.70577       -9.37978        4.31666
C          8.12369      -10.46067        3.92287
C          8.79960      -11.07301        2.73286
C          9.65384       -9.87119        2.22895
C          7.71959      -11.51900        1.72848
O          6.78990      -10.44394        1.69246
C          5.94307      -10.38256        0.54407
O          5.88949       -9.04062        0.17236
C          4.59828       -8.55221       -0.21874
C          4.68316       -7.02689       -0.21211
O          3.44721       -6.42165       -0.57020
C          9.64402      -12.26202        3.26939
C         10.55585      -12.87953        2.19975
O         10.47332      -12.65535        1.00852
O         11.43749      -13.69165        2.78948
C         12.38386      -14.38681        1.90088
C         13.25192      -15.28338        2.76034
C         14.29824      -16.03038        1.91968
C         15.15849      -16.98112        2.75555
H          0.12433       -0.06473       -0.00780
H          0.23910       -1.16198        1.38052
H          0.19846       -1.81773       -0.26724
H          2.46827       -0.06549        0.88474
H          2.43041       -0.71212       -0.75157
H          2.46537       -3.05669        0.16628
H          2.47827       -2.41548        1.80704
H          4.67309       -1.27751        1.36035
H          4.66262       -1.88570       -0.29338
H          4.70927       -4.24064        0.54908
H          4.66750       -3.66293        2.21641
H          6.83648       -2.43244        1.85133
H          6.91630       -3.05476        0.20135
H          7.11937       -5.39928        1.04799
H          6.87068       -4.82846        2.72859
H         10.79002       -9.30075        4.03960
H          8.42957       -8.84328        5.14216
H          7.26649      -10.86993        4.46171
H          9.06724       -9.30507        1.49293
H         10.59260      -10.18623        1.76549
H          7.24413      -12.45365        2.08204
H          8.17207      -11.71147        0.74378
H          4.93628      -10.76461        0.79929
H          6.39076      -11.00668       -0.25559
H          3.82304       -8.89224        0.49034
H          4.33183       -8.92134       -1.22657
H          5.51189       -6.69821       -0.86441
H          4.90660       -6.68630        0.80932
H          3.31585       -6.51029       -1.52718
H          8.98597      -13.05969        3.64926
H         10.27616      -11.96040        4.11778
H         12.96770      -13.62095        1.36936
H         11.80063      -14.94998        1.15838
H         12.61304      -16.00617        3.29271
H         13.75474      -14.67570        3.52997
H         14.94511      -15.29926        1.40724
H         13.78928      -16.59820        1.12302
H         15.70977      -16.43959        3.53795
H         15.89533      -17.50063        2.12936
H         14.54320      -17.74632        3.25067
