67

C          0.64082       -0.09045        0.10409
C          2.17126       -0.06665        0.08150
C          2.74826        1.23219       -0.49195
C          4.27942        1.27115       -0.51729
C          4.84797        2.57347       -1.08957
C          6.37881        2.62068       -1.11720
C          6.93825        3.92839       -1.68614
C          8.46876        3.98126       -1.72097
C          9.01999        5.29265       -2.28935
C         10.55011        5.35434       -2.31886
C         11.09544        6.67261       -2.87742
C         12.62562        6.73429       -2.89940
C         13.17225        8.05087       -3.46232
C         14.70381        8.09327       -3.47768
C         15.23033        9.41103       -4.05104
N         16.70474        9.45220       -4.09259
C         17.50626        9.87781       -3.05053
C         18.80007        9.69393       -3.43806
N         18.80380        9.14944       -4.71710
C         17.50812        9.01070       -5.08938
I         16.79246        8.25917       -6.87886
Si        20.37846        8.70669       -5.64776
C         20.33192        6.85699       -5.88960
C         20.37342        9.72377       -7.21173
C         21.75837        9.21653       -4.49711
H          0.25732       -1.03207        0.52075
H          0.22511        0.01753       -0.90902
H          0.23746        0.73143        0.71438
H          2.54548       -0.92105       -0.50780
H          2.55783       -0.21424        1.10430
H          2.37144        2.08786        0.09618
H          2.36269        1.37979       -1.51651
H          4.65717        0.41719       -1.10700
H          4.66530        1.12365        0.50697
H          4.46823        3.42645       -0.49977
H          4.46106        2.72064       -2.11347
H          6.76030        1.77109       -1.71071
H          6.76753        2.47195       -0.09424
H          6.55829        4.77696       -1.09030
H          6.54563        4.07860       -2.70738
H          8.85075        3.13448       -2.31806
H          8.86271        3.83218       -0.70012
H          8.63308        6.13862       -1.69446
H          8.62935        5.43993       -3.31168
H         10.93919        4.51388       -2.92019
H         10.94151        5.20160       -1.29768
H         10.70448        7.51324       -2.27807
H         10.70860        6.82450       -3.90032
H         13.01798        5.89254       -3.49626
H         13.01247        6.58737       -1.87603
H         12.78462        8.89517       -2.86681
H         12.79051        8.19855       -4.48734
H         15.09480        7.25538       -4.07776
H         15.09672        7.96008       -2.45650
H         14.91012       10.27044       -3.44670
H         14.86811        9.57608       -5.07489
H         17.08688       10.27616       -2.13420
H         19.71710        9.91336       -2.90648
H         19.50876        6.52259       -6.53208
H         20.25886        6.33571       -4.92542
H         21.27269        6.54378       -6.36641
H         19.57988        9.43996       -7.91265
H         21.33622        9.57681       -7.72348
H         20.27697       10.79456       -6.98673
H         21.75716        8.66091       -3.54988
H         21.76802       10.29429       -4.28677
H         22.70563        8.98075       -5.00517
