63

C          1.65578        0.80999        0.10835
C          3.11756        0.88488       -0.28919
O          3.88565       -0.20344        0.31922
P          4.67265        0.00193        1.70363
O          4.64826        1.38232        2.24766
O          4.12961       -1.15868        2.67405
C          2.82572       -1.01130        3.31703
C          2.76536       -1.96212        4.49412
C          6.34024       -0.64203        1.35054
C          7.24594       -0.54940        2.58486
C          8.71031       -0.83460        2.25233
N          9.52045       -0.62129        3.46690
C         10.76868       -1.03024        3.73371
N         11.22889       -1.11382        5.00093
C         12.64560       -1.53808        5.04820
C         12.92802       -1.85289        3.55708
N         11.71653       -1.37874        2.84533
C         11.78768       -0.98736        1.43196
C         12.09036        0.50454        1.23732
C         12.02994        0.91643       -0.24923
C         10.71275        0.70885       -0.84055
C          9.60722        0.53128       -1.30111
Si        12.96092       -3.00319        6.27325
C         12.45735       -2.40269        7.98256
C         11.89161       -4.44874        5.72034
C         14.79213       -3.39628        6.17459
H          1.08425        1.56824       -0.44550
H          1.52560        1.00967        1.18051
H          1.23221       -0.17567       -0.12648
H          3.56681        1.84229        0.00883
H          3.24899        0.74391       -1.36999
H          2.05210       -1.24630        2.56984
H          2.70532        0.03512        3.63553
H          2.91068       -3.00140        4.17089
H          1.78133       -1.88894        4.97747
H          3.53106       -1.71392        5.24105
H          6.72885       -0.01380        0.53401
H          6.25800       -1.67110        0.97183
H          6.89348       -1.25039        3.35766
H          7.16520        0.46815        3.00357
H          9.04394       -0.16384        1.44634
H          8.83878       -1.87393        1.91276
H          9.02159       -0.21415        4.25279
H         10.59233       -1.27697        5.77379
H         13.25427       -0.67596        5.36976
H         13.07248       -2.92464        3.34387
H         13.81126       -1.31325        3.19129
H         10.85365       -1.25492        0.92358
H         12.57102       -1.60959        0.97746
H         13.08647        0.74510        1.63771
H         11.36039        1.10256        1.80418
H         12.78285        0.35700       -0.82979
H         12.30482        1.97888       -0.33859
H          8.64847        0.39248       -1.75594
H         11.38483       -2.16866        8.05337
H         13.02137       -1.50706        8.27815
H         12.66025       -3.18293        8.72986
H         10.82305       -4.19000        5.70978
H         12.01505       -5.28952        6.41753
H         12.16427       -4.81365        4.72035
H         15.40531       -2.52827        6.45434
H         15.09014       -3.71657        5.16639
H         15.04159       -4.21385        6.86539
