80

C          0.76941       -0.38799        0.01114
C          2.29973       -0.36780       -0.02093
C          2.87299        0.56137       -1.09673
C          4.40421        0.59039       -1.13206
C          4.97937        1.52378       -2.20208
C          6.51103        1.55471       -2.22665
C          7.09213        2.49927       -3.28354
C          8.62435        2.51233       -3.31605
C          9.20565        3.47243       -4.35905
C         10.73657        3.44468       -4.43752
C         11.30307        4.44729       -5.44868
C         12.82580        4.37432       -5.61720
C         13.35635        5.46107       -6.56124
C         14.88988        5.53703       -6.69863
P         15.70840        4.04624       -7.34730
C         14.95666        3.56350       -8.93605
C         15.46413        2.15582       -9.31462
O         16.21077        1.59391       -8.51413
C         15.05006        1.55465      -10.59489
C         14.16165        2.19397      -11.48231
C         13.81853        1.58486      -12.68730
C         14.36039        0.33823      -13.01821
C         15.24062       -0.30715      -12.13977
C         15.58308        0.29313      -10.93371
C         17.50471        4.30038       -7.49034
C         18.17904        4.87805       -6.23013
C         18.02064        4.03477       -4.95840
C         18.78025        4.62578       -3.76519
C         18.63488        3.81297       -2.47338
C         19.36522        4.44720       -1.28685
H          0.39045       -1.06166        0.79190
H          0.35416       -0.72698       -0.94981
H          0.36090        0.61404        0.21046
H          2.67908       -1.39064       -0.18587
H          2.68520       -0.05981        0.96589
H          2.49205        1.58516       -0.93340
H          2.48982        0.25303       -2.08575
H          4.78482       -0.43299       -1.29817
H          4.78528        0.89524       -0.14134
H          4.59606        2.54640       -2.03833
H          4.60412        1.21752       -3.19457
H          6.89304        0.53320       -2.40057
H          6.88485        1.84965       -1.23031
H          6.72101        3.52318       -3.10140
H          6.70946        2.21333       -4.27923
H          8.99229        1.49007       -3.51383
H          9.00868        2.78291       -2.31697
H          8.86967        4.50001       -4.13525
H          8.78816        3.22895       -5.35191
H         11.06885        2.42476       -4.69974
H         11.15993        3.65429       -3.43984
H         11.02408        5.46971       -5.14131
H         10.82380        4.28693       -6.43029
H         13.09253        3.36786       -5.98762
H         13.31393        4.47376       -4.63213
H         13.02947        6.44577       -6.19304
H         12.89487        5.35620       -7.55671
H         15.35962        5.72565       -5.71987
H         15.19002        6.36773       -7.35704
H         15.46412        2.99287       -6.44696
H         15.21412        4.31838       -9.69463
H         13.86155        3.58049       -8.82258
H         13.72979        3.16588      -11.23990
H         13.13006        2.08060      -13.37130
H         14.09619       -0.13270      -13.96566
H         15.65950       -1.27860      -12.40243
H         16.26607       -0.19276      -10.23712
H         17.64763        4.96478       -8.35776
H         17.91293        3.31476       -7.75742
H         17.82402        5.90549       -6.05039
H         19.24912        4.97571       -6.47041
H         18.36842        3.00585       -5.15210
H         16.95296        3.94470       -4.68320
H         18.43037        5.65783       -3.58711
H         19.84953        4.71074       -4.02411
H         19.01628        2.79210       -2.64117
H         17.56447        3.70056       -2.23013
H         20.44004        4.55752       -1.49158
H         19.26220        3.83667       -0.38036
H         18.96745        5.44736       -1.06049
