37

C          0.40437        0.01013        0.02817
C          1.93337       -0.04529        0.06961
C          2.59937        1.15051       -0.62074
C          4.12970        1.11553       -0.56632
C          4.78810        2.29154       -1.29595
C          6.32009        2.27724       -1.20607
C          6.94099        3.42853       -1.98702
O          8.37830        3.56548       -1.78214
C          9.16878        2.59961       -2.43657
N         10.54236        3.07650       -2.49913
C         11.47870        2.75553       -1.57025
N         11.17279        2.38809       -0.31752
N          9.93010        2.48326        0.34512
N         12.78729        2.74333       -1.90703
I         10.89730        4.67653       -3.80930
H         -0.04236       -0.86356        0.52135
H          0.03307        0.03242       -1.00719
H          0.02273        0.90878        0.53507
H          2.28280       -0.97769       -0.40553
H          2.27304       -0.09505        1.11810
H          2.23937        2.08617       -0.15786
H          2.27178        1.19045       -1.67456
H          4.49095        0.16798       -1.00307
H          4.45857        1.10844        0.48765
H          4.40954        3.24073       -0.87943
H          4.48028        2.28033       -2.35571
H          6.69730        1.31067       -1.58173
H          6.63056        2.34951       -0.15029
H          6.53774        4.39459       -1.65587
H          6.75308        3.33450       -3.07089
H          8.81120        2.42392       -3.46451
H          9.18895        1.63293       -1.89830
H         11.81800        1.74613        0.13943
H          9.30367        3.11301       -0.18472
H         10.11331        2.91010        1.25862
H         13.04867        2.76118       -2.88656
H         13.50246        2.97507       -1.22767
