88

C          1.49179        0.14689        1.47892
C          2.63114        0.25752        0.46330
C          3.39714       -1.05048        0.14814
C          2.79134       -1.96278       -0.96689
O          3.17005       -3.29091       -0.67289
C          2.96327       -4.06560       -1.85870
C          3.48075       -3.17202       -3.01454
N          3.56074       -1.81589       -2.32656
C          2.61879       -3.13211       -4.26991
C          2.58895       -4.46413       -5.02189
O          1.80601       -4.23533       -6.17288
C          1.48366       -5.42051       -6.90285
C          0.64791       -4.98337       -8.09868
O          0.08728       -6.16575       -8.64919
C         -0.75152       -6.03169       -9.73517
C         -1.37733       -7.20928      -10.16740
C         -2.24150       -7.17593      -11.25267
C         -2.50818       -5.98585      -11.95930
C         -1.87775       -4.82548      -11.50038
C         -1.00758       -4.83173      -10.40139
C         -3.46088       -5.99778      -13.16180
C         -2.98696       -6.98311      -14.28269
C         -1.59950       -6.92502      -14.99338
C         -1.30485       -5.56944      -15.66407
C         -0.42712       -7.27720      -14.05578
C         -1.66151       -8.00195      -16.09959
C         -4.83814       -6.52564      -12.67887
C         -3.71650       -4.58369      -13.72013
C          1.29640       -1.77837       -1.22984
C          0.82949       -0.88997       -2.20779
C         -0.52961       -0.69573       -2.45260
C         -1.45915       -1.41047       -1.69893
C         -1.03387       -2.28088       -0.69667
C          0.33384       -2.45722       -0.43389
O          0.80572       -3.23669        0.57249
C         -0.13182       -3.90269        1.43033
C          4.87272       -0.64192       -0.09336
O          5.70327       -1.61615       -0.75691
H          1.11306        1.14572        1.73073
H          1.84142       -0.32039        2.41075
H          0.64671       -0.43977        1.10257
H          3.37020        0.97177        0.86166
H          2.26778        0.71161       -0.47207
H          3.35722       -1.70454        1.03362
H          1.89536       -4.30271       -1.99286
H          3.53348       -4.99367       -1.74683
H          4.51743       -3.43785       -3.26556
H          3.21898       -1.05582       -2.92170
H          4.55748       -1.66823       -2.02626
H          3.00377       -2.36916       -4.96555
H          1.58566       -2.85529       -4.01346
H          2.14180       -5.26394       -4.39656
H          3.61431       -4.79205       -5.29208
H          0.89582       -6.11511       -6.27458
H          2.40092       -5.94262       -7.23068
H          1.27544       -4.45363       -8.83659
H         -0.14342       -4.29201       -7.75659
H         -1.17469       -8.14003       -9.63676
H         -2.70700       -8.11098      -11.56689
H         -2.05024       -3.87500      -12.00361
H         -0.54316       -3.89751      -10.08801
H         -3.75462       -6.92066      -15.07365
H         -3.07907       -8.00464      -13.87599
H         -1.09018       -4.78463      -14.92674
H         -2.14146       -5.23194      -16.29302
H         -0.41863       -5.65661      -16.31024
H         -0.26603       -6.51453      -13.28380
H          0.50241       -7.36490      -14.63836
H         -0.59258       -8.23789      -13.54669
H         -2.45192       -7.77928      -16.83169
H         -1.86643       -8.99716      -15.67735
H         -0.70651       -8.05860      -16.64202
H         -4.77544       -7.55374      -12.29779
H         -5.56254       -6.52011      -13.50639
H         -5.23246       -5.89018      -11.87350
H         -2.80510       -4.06186      -14.03101
H         -4.22820       -3.95631      -12.97588
H         -4.37046       -4.64891      -14.60067
H          1.52864       -0.29914       -2.80579
H         -0.85189        0.00276       -3.22319
H         -2.52687       -1.28551       -1.87970
H         -1.77301       -2.81534       -0.10347
H         -0.77516       -3.18049        1.95539
H          0.48088       -4.44355        2.15818
H         -0.75014       -4.61925        0.86936
H          5.32044       -0.34779        0.86722
H          4.91459        0.24219       -0.74883
H          5.77524       -2.40876       -0.19849
