48

O          4.72233        4.00874        5.54870
C          3.35103        3.58669        5.62770
C          3.28760        2.07887        5.51518
O          3.55000        1.66749        4.16304
C          4.40910        0.59102        3.95581
O          5.69514        0.98182        3.45836
C          6.59334        1.50152        4.43983
C          7.93853        1.67031        3.81488
C          8.75103        2.77289        3.77880
N          9.91777        2.41884        3.12342
C          9.83716        1.12846        2.76404
N          8.64582        0.65212        3.16777
C          8.15588       -0.70822        2.87724
C          7.35865       -0.76092        1.56440
C          8.14237       -0.53578        0.28689
Br         9.64388       -1.78097        0.02092
Br         6.41401       -2.48391        1.54390
C         11.10882        3.26013        2.93615
C         12.18127        2.96107        3.99841
O         12.63493        1.62361        3.92622
C         13.73161        1.39066        3.02363
C         13.55641        0.04636        2.35342
O         12.42002        0.12894        1.47416
H          4.73606        4.97748        5.53545
H          2.75508        4.03588        4.81512
H          2.90478        3.88142        6.59412
H          2.27448        1.74474        5.79497
H          4.00863        1.61635        6.21153
H          3.99684       -0.02738        3.14721
H          4.53665       -0.00681        4.87998
H          6.66139        0.80161        5.29873
H          6.25575        2.47771        4.82607
H          8.58443        3.77237        4.16283
H         10.63170        0.57557        2.25106
H          7.51630       -1.01929        3.70840
H          9.02404       -1.37791        2.83118
H          6.55460       -0.01439        1.60901
H          8.58423        0.46892        0.26982
H          7.50393       -0.65907       -0.59251
H         10.78914        4.30878        2.99064
H         11.49629        3.07015        1.92662
H         11.75723        3.09858        5.00459
H         13.00312        3.68771        3.87671
H         14.67759        1.40128        3.59183
H         13.78279        2.17725        2.25195
H         13.40632       -0.73652        3.11677
H         14.47366       -0.18763        1.78796
H         12.36784       -0.67732        0.93665
