65

C          1.43721       -2.35686        0.13876
C          2.91595       -2.11611        0.36222
O          3.69822       -2.69215       -0.74001
P          4.63856       -3.97601       -0.51271
O          4.58652       -4.56923        0.84165
O          4.29864       -4.94215       -1.75169
C          3.08018       -5.75439       -1.71038
C          3.11762       -6.72337       -2.87272
C          6.30987       -3.42869       -1.00998
C          6.44505       -2.85480       -2.42526
C          7.89481       -2.44701       -2.77830
P          8.97958       -3.85985       -3.13063
N          8.65613       -4.49597       -4.62002
C          8.68698       -3.67455       -5.84130
C          8.86219       -5.93654       -4.85033
C         10.70665       -3.47101       -2.70220
C         11.35544       -2.35884       -3.54492
C         12.70505       -1.91925       -2.95991
P         13.40835       -0.53120       -3.92020
O         12.37971        0.45432       -4.33616
O         14.61841        0.05815       -3.04772
C         14.43574        1.25321       -2.21967
C         15.77327        1.94894       -2.08272
O         14.17121       -1.34712       -5.06605
C         14.88723       -0.63197       -6.12604
C         15.37650       -1.65241       -7.13085
H          0.86270       -1.85843        0.93244
H          1.19951       -3.42860        0.17480
H          1.10861       -1.95089       -0.82699
H          3.26088       -2.56201        1.30492
H          3.15398       -1.04359        0.35851
H          2.21445       -5.07803       -1.78067
H          3.04574       -6.27728       -0.74358
H          3.16194       -6.19035       -3.83184
H          2.20699       -7.33765       -2.86596
H          3.98249       -7.39577       -2.79818
H          6.94401       -4.31638       -0.85531
H          6.61236       -2.68757       -0.25359
H          5.81959       -1.95598       -2.51767
H          6.06240       -3.57144       -3.16668
H          8.36839       -1.88580       -1.95680
H          7.92346       -1.78697       -3.65898
H          8.62269       -4.91611       -2.26308
H          8.51082       -2.61710       -5.61245
H          7.88888       -4.01589       -6.51499
H          9.65269       -3.76286       -6.36294
H          8.72659       -6.49823       -3.91721
H          9.86384       -6.15104       -5.25567
H          8.10929       -6.28501       -5.57092
H         11.27413       -4.41355       -2.76680
H         10.67467       -3.19550       -1.63230
H         10.70274       -1.47428       -3.60298
H         11.49653       -2.71308       -4.57681
H         13.43281       -2.74284       -2.93179
H         12.57444       -1.55507       -1.92865
H         14.05656        0.92501       -1.23862
H         13.68202        1.89544       -2.69556
H         16.52264        1.28253       -1.63627
H         15.66371        2.82829       -1.43315
H         16.14131        2.28803       -3.05976
H         15.72443       -0.08878       -5.66335
H         14.19913        0.09536       -6.58149
H         16.04736       -2.38128       -6.65772
H         15.93252       -1.14279       -7.92957
H         14.53685       -2.19118       -7.58964
