62

C          6.42603        0.36128        8.84852
C          5.55234       -0.53903        7.97153
C          4.99408        0.18928        6.74296
C          4.10586       -0.72714        5.89477
N          3.62509       -0.08110        4.65706
C          2.45295        0.56753        4.60376
S          1.44815        0.73388        5.96761
S          2.11879        1.30669        3.01531
C          0.44656        2.01651        3.13795
C         -0.58567        1.21455        2.32890
C         -0.76883       -0.22696        2.84075
C         -2.05473       -0.47899        3.65333
O         -2.55547        0.68379        4.36290
C         -2.00556        0.73363        5.65981
N         -1.36311       -0.60322        5.90020
C         -1.91991       -1.48602        4.82066
C         -1.09554       -2.76991        4.61227
C         -1.34224       -3.86275        5.68337
F         -1.01932       -3.33941        6.91083
F         -2.66252       -4.18905        5.69202
F         -1.43013       -3.29504        3.39636
F          0.25248       -2.51167        4.61126
C         -3.10447        0.92566        6.74039
O         -3.12889        0.11991        7.65738
C         -4.03079        2.08417        6.58250
C          4.51999       -0.21686        3.49111
C          4.23401       -1.47913        2.66697
C          5.12798       -1.57345        1.42562
C          4.86288       -2.83703        0.60381
H          6.82143       -0.18970        9.71170
H          5.85564        1.21883        9.23325
H          7.28374        0.75797        8.28592
H          4.71668       -0.93953        8.56946
H          6.13741       -1.41402        7.64205
H          5.82681        0.57222        6.12986
H          4.40559        1.06526        7.05798
H          3.22866       -1.05161        6.46791
H          4.66308       -1.62280        5.58170
H          0.54077        3.03995        2.75154
H          0.21990        2.07411        4.21338
H         -0.27051        1.18962        1.27707
H         -1.53702        1.76651        2.35014
H          0.12084       -0.49744        3.42569
H         -0.78946       -0.93445        2.00060
H         -2.87659       -0.77554        2.99005
H         -1.20632        1.49380        5.75536
H         -1.66448       -0.89595        6.85680
H         -0.29901       -0.45939        5.84645
H         -2.92562       -1.79519        5.14072
H         -0.73261       -4.75994        5.49473
H         -4.50040        2.06030        5.58809
H         -3.45447        3.02256        6.63088
H         -4.78959        2.07544        7.37041
H          5.54805       -0.23347        3.88043
H          4.44067        0.68638        2.86926
H          3.17475       -1.47856        2.36292
H          4.37901       -2.36936        3.30073
H          6.18682       -1.54683        1.73209
H          4.97047       -0.68141        0.79676
H          5.04839       -3.74579        1.19464
H          5.51274       -2.87852       -0.27987
H          3.82145       -2.87470        0.25187
