47

Br         6.42927        2.67888        3.49094
C          5.26871        1.43853        2.54078
C          3.84432        1.43917        3.09343
C          2.94617        0.67210        2.11948
N          1.43437        0.89688        2.15488
C          0.88468        0.10832        0.96807
C         -0.62896       -0.04790        1.01510
O         -1.03037       -0.70797        2.20201
C         -0.68038        0.06662        3.35383
C          0.83480        0.26550        3.41961
C         -1.18953       -0.67648        4.58811
C         -1.05068        0.12371        5.89841
O         -1.51340        1.47457        5.71654
C         -1.74805       -0.56670        7.06388
C          1.04135        2.38917        2.13858
C          1.36607        3.34270        0.96560
C          2.84540        3.66075        0.69990
C          0.61367        3.08885       -0.35196
Br         3.83720        0.66441        4.90959
H          5.73466        0.44863        2.60418
H          5.26898        1.77967        1.49789
H          3.51322        2.47092        3.24271
H          3.09097       -0.40915        2.24195
H          3.24568        0.93682        1.09698
H          1.34455       -0.88702        1.03462
H          1.22623        0.59700        0.05118
H         -0.93090       -0.68271        0.17105
H         -1.14977        0.92109        0.90669
H         -1.19635        1.04341        3.31188
H          1.32958       -0.70826        3.53398
H          1.11816        0.90201        4.26380
H         -0.67095       -1.64418        4.68190
H         -2.25156       -0.90112        4.40163
H          0.01949        0.23424        6.14711
H         -2.46029        1.50418        5.93025
H         -2.82689       -0.67295        6.86699
H         -1.61558        0.01208        7.98672
H         -1.34321       -1.57434        7.23107
H          1.47214        2.78826        3.06548
H         -0.04447        2.38699        2.28191
H          0.93073        4.26970        1.38328
H          3.37074        2.83988        0.19042
H          3.39800        3.92015        1.61284
H          2.91327        4.52853        0.03125
H          1.07735        2.30305       -0.96477
H          0.63408        4.00223       -0.96048
H         -0.44161        2.82990       -0.19291
