59

C          8.78412        2.16686        2.46771
C          7.35435        1.88369        2.93396
C          6.89102        0.46140        2.59593
C          5.49276        0.10108        3.11537
N          4.41563        0.94532        2.56025
C          3.91589        1.93763        3.33319
O          4.30737        2.20133        4.47093
C          2.77756        2.81026        2.71720
N          2.30140        3.73585        3.75369
N          1.12741        3.36132        4.27365
C          0.66889        4.03768        5.31067
C          1.35512        5.10932        5.92755
C          2.57794        5.44070        5.35931
C          3.06629        4.74516        4.24404
C          4.35108        5.15319        3.57733
C          4.28054        6.56076        2.96490
O          4.28237        7.49498        4.03540
C          4.06802        8.83367        3.63250
C          4.16329        9.71229        4.87565
F          5.37537        9.64182        5.46070
F          3.91802       10.99783        4.54786
F          3.24219        9.34450        5.82309
C          0.76833        5.90555        7.05474
C         -0.10536        7.04994        6.43851
O          0.58613        7.85329        5.49907
C         -0.05096        5.09257        8.07576
C          0.75744        4.02325        8.81628
C          3.94974        0.60585        1.21980
H          9.08989        3.19288        2.71277
H          8.88711        2.03951        1.38007
H          9.50138        1.48584        2.94808
H          6.66846        2.61315        2.46808
H          7.27176        2.04385        4.02081
H          7.58860       -0.26778        3.03919
H          6.94855        0.29816        1.50624
H          5.44952        0.20889        4.20582
H          5.24869       -0.94200        2.86336
H          1.90368        2.21337        2.43696
H          3.12037        3.37352        1.84022
H         -0.29918        3.68710        5.67000
H          3.18345        6.25128        5.75968
H          4.65943        4.44401        2.80439
H          5.14664        5.14197        4.33665
H          3.37143        6.68077        2.34453
H          5.16102        6.71207        2.31409
H          3.06770        8.97542        3.18533
H          4.83559        9.18101        2.91774
H          1.60571        6.39248        7.58412
H         -0.50915        7.64570        7.27407
H         -0.95771        6.60785        5.90007
H          1.16660        8.47576        5.96619
H         -0.92927        4.63966        7.58654
H         -0.46457        5.80765        8.80315
H          1.15039        3.25125        8.13865
H          0.13497        3.51560        9.56385
H          1.61391        4.46682        9.34379
H          4.79702        0.57984        0.52080
H          3.23091        1.33817        0.84092
H          3.46866       -0.38419        1.21887
