90

C         10.83001        6.08602       -0.85053
C         10.06822        4.76713       -0.69832
C         10.91637        3.53364       -1.02779
C         10.14350        2.21375       -0.94315
C         11.00144        0.98112       -1.24583
C         10.21996       -0.33606       -1.21149
C         11.08338       -1.56620       -1.50815
C         10.29959       -2.88257       -1.50450
C         11.16971       -4.10414       -1.81970
C         10.37593       -5.41481       -1.84921
C         11.16187       -6.65867       -2.30730
C         10.28825       -7.91211       -2.44128
C          9.82084       -8.38040       -1.07010
N         10.95061       -8.41158       -0.14133
C         12.12508       -7.78896       -0.35089
N         13.12817       -7.97892        0.53517
C         13.09552       -8.94545        1.63257
C         13.26702      -10.40984        1.17575
C         12.49448      -11.39720        2.05388
S         10.69130      -11.16867        1.94571
C         10.28216      -10.47792        3.58359
S         11.40463      -10.04642        4.71699
N          8.93127      -10.39478        3.74653
C          8.34153      -10.12095        5.04038
C          7.58478       -8.96124        5.22225
C          6.97727       -8.72507        6.45756
C          7.12506       -9.64409        7.49897
C          7.87810      -10.80643        7.30438
C          8.48611      -11.05186        6.07405
C          8.00566      -10.62490        2.66089
C          7.29850      -11.83033        2.59401
C          6.38041      -12.03292        1.56339
C          6.16017      -11.03304        0.61088
C          6.85782       -9.82447        0.69045
C          7.78163       -9.61563        1.71609
N         12.30656       -6.97546       -1.41358
C         13.63534       -6.42280       -1.73674
C         14.62767       -7.42935       -2.34260
C         14.14751       -8.07422       -3.64454
H         10.19445        6.94841       -0.60710
H         11.19174        6.22097       -1.88081
H         11.70638        6.12207       -0.18631
H          9.17892        4.77905       -1.35122
H          9.68357        4.67810        0.33187
H         11.78455        3.49571       -0.34607
H         11.33689        3.64299       -2.04327
H          9.29143        2.24619       -1.64481
H          9.70054        2.11155        0.06333
H         11.83584        0.93109       -0.52420
H         11.46966        1.09891       -2.23911
H          9.39258       -0.28757       -1.94098
H          9.74331       -0.45409       -0.22245
H         11.90201       -1.62496       -0.76909
H         11.57232       -1.43843       -2.49012
H          9.47860       -2.82163       -2.23969
H          9.81660       -3.02075       -0.52134
H         11.97690       -4.16688       -1.07061
H         11.66211       -3.94997       -2.79643
H          9.52546       -5.30390       -2.54274
H          9.93857       -5.59684       -0.85337
H         11.61173       -6.44682       -3.28797
H         10.86669       -8.70777       -2.93324
H          9.41924       -7.69640       -3.07551
H          9.39497       -9.39148       -1.11286
H          9.03790       -7.71503       -0.67247
H         10.88959       -9.08605        0.63041
H         14.00178       -7.50621        0.34823
H         12.15771       -8.82251        2.19697
H         13.88784       -8.65608        2.33236
H         14.33311      -10.68398        1.18281
H         12.93519      -10.50946        0.13050
H         12.74655      -11.28661        3.12262
H         12.68396      -12.43312        1.74472
H          7.47398       -8.24732        4.40596
H          6.38903       -7.81905        6.60478
H          6.65106       -9.45697        8.46268
H          7.99129      -11.52770        8.11409
H          9.08014      -11.95185        5.91600
H          7.47499      -12.59828        3.34722
H          5.83199      -12.97327        1.50549
H          5.43433      -11.19182       -0.18699
H          6.66576       -9.03502       -0.03761
H          8.32024       -8.67109        1.80787
H         14.05987       -5.92894       -0.84611
H         13.45731       -5.61155       -2.45251
H         14.87474       -8.21695       -1.61303
H         15.56470       -6.87823       -2.51839
H         13.24053       -8.67614       -3.49166
H         14.91529       -8.74464       -4.05058
H         13.92959       -7.31933       -4.41399
