76

F          2.06048       -2.38415        0.92433
C          3.33571       -1.97205        1.10888
C          4.30039       -2.74054        0.15510
C          3.90971       -3.02375       -1.34796
C          3.48799       -1.86373       -2.32963
C          4.57059       -0.87457       -2.76849
O          4.85956        0.00229       -1.69707
C          6.20285        0.45117       -1.64342
C          6.34378        1.22676       -0.31542
C          7.67493        1.03831        0.35554
N          7.78594       -0.16178        1.03501
C          8.87628       -0.57518        1.68669
C          9.99583        0.25449        1.75318
C          9.92882        1.54416        1.11112
C          8.75879        1.90237        0.35169
C          8.69594        3.19990       -0.43727
C          9.89747        3.56243       -1.30468
C         10.46465        4.83610       -1.14264
C         11.56286        5.24906       -1.89675
C         12.10843        4.37835       -2.84054
C         11.54069        3.11709       -3.02257
C         10.43330        2.68668       -2.27525
C          9.84855        1.32373       -2.55362
C         11.04555        2.39032        1.24317
C         12.20738        1.98547        1.89211
C         12.25977        0.69627        2.49089
C         11.17364       -0.14603        2.44230
C         13.40485        2.89035        1.85501
C         14.08828        2.81533        0.46638
C         15.10056        3.93681        0.23844
C         15.73770        3.85096       -1.15855
N         16.50329        5.03451       -1.50261
C         15.97167        6.19033       -2.03827
C         16.97356        7.14125       -2.09258
C         18.15179        6.54482       -1.56087
C         17.83150        5.24943       -1.19931
F          3.05990       -2.50363       -3.46158
F          2.42375       -1.20857       -1.78627
F          5.00439       -3.63782       -1.89965
F          2.89248       -3.91613       -1.31206
F          5.52489       -2.08745        0.18705
F          4.50184       -3.95891        0.72490
F          3.41119       -0.62748        0.89281
H          3.64002       -2.18548        2.14846
H          4.16819       -0.33243       -3.64172
H          5.45611       -1.44900       -3.08848
H          6.44395        1.09876       -2.50610
H          6.89650       -0.41165       -1.67402
H          5.55754        0.84068        0.35181
H          6.12015        2.28872       -0.45750
H          6.97288       -0.78141        1.00826
H          8.83118       -1.55880        2.15324
H          8.53129        4.02564        0.27490
H          7.79965        3.18051       -1.07301
H         10.03486        5.51824       -0.40490
H         11.98160        6.24532       -1.75151
H         12.95978        4.68487       -3.44950
H         11.95563        2.44607       -3.77723
H         10.31810        0.87618       -3.43766
H          8.76755        1.37829       -2.74910
H          9.99520        0.62477       -1.71603
H         11.02473        3.37935        0.79337
H         13.17070        0.38257        3.00275
H         11.20240       -1.12432        2.92428
H         14.12114        2.63059        2.64724
H         13.08087        3.92752        2.03375
H         13.31114        2.87371       -0.31376
H         14.56491        1.82749        0.35218
H         15.89077        3.92135        1.00529
H         14.59332        4.91078        0.32884
H         14.95091        3.72104       -1.91748
H         16.39912        2.97461       -1.23068
H         14.93007        6.23234       -2.34160
H         16.87433        8.14730       -2.48713
H         19.13004        7.00542       -1.46923
H         18.43660        4.45951       -0.76541
