60

C          1.08816       -1.35571       -0.90298
C          2.12114       -0.76508       -0.68327
C          3.38848       -0.12255       -0.35999
C          3.85028       -0.43777        1.06686
C          5.23871        0.06605        1.48100
C          5.76117       -0.93312        2.55714
C          4.61662       -1.94663        2.72152
N          3.90075       -1.93983        1.38995
C          4.53580       -2.81960        0.32501
C          4.62568       -4.28815        0.74068
C          3.33469       -4.94243        1.28169
C          2.15118       -4.79971        0.30524
C          0.80102       -5.31189        0.84957
C         -0.36354       -4.89955       -0.01247
C         -0.90160       -5.59544       -1.03172
C         -0.41210       -6.94839       -1.47587
C         -2.07046       -5.05230       -1.80982
C          3.63068       -6.40379        1.64750
C          6.16385       -0.27444        3.88359
C          6.61770       -1.23620        5.00149
C          7.79294       -2.12817        4.57481
C          6.96762       -0.43505        6.26262
H          0.17269       -1.86482       -1.12940
H          3.28801        0.97298       -0.42804
H          4.16151       -0.39877       -1.09508
H          3.08876       -0.05891        1.76511
H          5.15690        1.08582        1.87835
H          5.91555        0.11080        0.61697
H          6.63628       -1.45952        2.14915
H          3.88469       -1.61544        3.47216
H          4.93347       -2.96366        2.96809
H          2.93552       -2.28099        1.49880
H          5.52937       -2.40917        0.10703
H          3.90618       -2.69969       -0.56418
H          5.44072       -4.42590        1.46861
H          4.95155       -4.83002       -0.16250
H          3.04977       -4.43301        2.22554
H          2.38503       -5.32550       -0.63636
H          2.01353       -3.74294        0.01810
H          0.65232       -4.91265        1.86779
H          0.83495       -6.40528        0.95723
H         -0.80777       -3.92647        0.22561
H          0.43331       -7.32288       -0.88654
H         -0.09960       -6.91774       -2.53175
H         -1.22267       -7.69174       -1.41757
H         -2.39351       -4.07147       -1.43709
H         -2.93137       -5.73717       -1.75319
H         -1.82536       -4.95441       -2.87955
H          3.86892       -6.99148        0.74817
H          2.77375       -6.87839        2.14032
H          4.48696       -6.47900        2.33246
H          5.31427        0.32784        4.25132
H          6.97817        0.43980        3.67646
H          5.76618       -1.89427        5.25870
H          8.65903       -1.52139        4.26817
H          7.54221       -2.79723        3.73804
H          8.11637       -2.76581        5.40815
H          7.82842        0.22674        6.08234
H          7.23099       -1.10259        7.09379
H          6.12624        0.19153        6.59113
