49

N          0.80499       -0.34493       -0.01286
C          2.12882        0.27209       -0.05377
C          2.70047        0.37290        1.36755
C          4.14246        0.92238        1.35409
C          4.81444        1.00098        2.69952
C          5.06419        2.29318        3.19958
C          5.72084        2.47572        4.39468
N          6.11394        1.39158        5.08725
C          5.89177        0.10683        4.69033
C          5.21355       -0.13041        3.47726
C          4.90730       -1.56400        3.07281
C          5.37733       -2.04811        1.68585
C          6.85056       -1.73625        1.39252
S          7.12815       -1.76734       -0.38861
O          6.99400       -3.11806       -0.88693
O          6.37093       -0.67279       -0.95101
O          8.69459       -1.34936       -0.45833
C          6.40138       -0.93291        5.67429
C          7.82954       -0.62957        6.16368
O          7.81181        0.56896        6.96781
C          5.41924       -1.13052        6.86483
C          4.03252       -1.65030        6.48276
H          0.53938       -0.70768       -0.92717
H          0.08700        0.32615        0.26047
H          2.15468        1.27210       -0.53122
H          2.78658       -0.37460       -0.65555
H          2.64146       -0.62677        1.81886
H          2.06491        1.02847        1.98501
H          4.12722        1.93502        0.92647
H          4.76011        0.32828        0.66323
H          4.75000        3.16473        2.62723
H          5.96117        3.44793        4.82129
H          6.68737        1.49479        5.94728
H          3.81798       -1.70934        3.13344
H          5.31975       -2.24236        3.82537
H          4.74649       -1.62319        0.89652
H          5.21728       -3.13343        1.63924
H          7.54089       -2.45744        1.85008
H          7.13858       -0.72145        1.70320
H          9.18523       -2.12021       -0.80471
H          6.49099       -1.89146        5.14597
H          8.51243       -0.50693        5.30534
H          8.17699       -1.48256        6.76755
H          8.70608        0.75822        7.29285
H          5.32722       -0.18314        7.41694
H          5.90076       -1.83661        7.55897
H          3.49160       -0.95573        5.82400
H          3.41987       -1.78260        7.38318
H          4.08517       -2.62554        5.97852
