89

O          2.13580        2.11174       -1.30803
C          3.07925        1.41025       -0.50886
C          4.08670        0.57244       -1.35590
C          3.32839       -0.13473       -2.52647
S          4.55744       -1.16610       -3.50575
C          3.78645       -2.60284       -3.08893
N          2.64402       -2.47548       -2.47198
C          2.06873       -1.10018       -2.40487
C          1.11111       -0.98468       -1.19452
C          1.28697       -1.88990        0.03099
C          0.32729       -1.46504        1.15996
S          1.03498       -0.27928        2.34820
C          0.47688        1.32397        1.78724
S         -0.57118        1.58662        0.50718
N          1.00437        2.32836        2.53373
C          1.87492        2.07822        3.66694
C          1.31321        1.78891        4.91556
C          2.14972        1.57374        6.01184
C          3.53685        1.65426        5.86279
C          4.09144        1.95229        4.61439
C          3.26278        2.16630        3.51212
C          0.65954        3.71398        2.27311
C          1.47301        4.48398        1.43860
C          1.15771        5.82688        1.22412
C          0.04048        6.39377        1.84299
C         -0.76442        5.61675        2.68087
C         -0.45619        4.27346        2.90017
C          1.21023       -0.95114       -3.70083
C          0.40226        0.35439       -3.76345
C         -0.78565        0.23574       -4.73480
S         -2.18568        1.27167       -4.24122
C         -2.87899        0.31870       -2.88571
S         -2.42314       -1.26152       -2.55700
N         -3.82968        0.98749       -2.19494
C         -4.20297        2.39185       -2.40573
C         -4.07066        3.15749       -1.08429
O         -4.84790        2.56293       -0.05193
C         -4.44876        1.20869        0.16545
C         -4.59137        0.36840       -1.10196
C          5.17440        1.59240       -1.91449
C          6.52113        1.01806       -2.39623
C          4.64684        2.58629       -2.96371
C          4.75098       -0.40772       -0.37388
H          1.30180        2.19817       -0.79315
H          2.57428        0.75363        0.21294
H          3.68665        2.11794        0.08787
H          3.01846        0.65516       -3.21828
H          4.21137       -3.58027       -3.32171
H          2.09370       -3.28175       -2.17954
H          0.09570       -1.17464       -1.57898
H          1.07436        0.06046       -0.88409
H          2.31721       -1.91065        0.41403
H          1.03452       -2.93391       -0.22845
H          0.06594       -2.32370        1.79279
H         -0.60296       -1.02870        0.76296
H          0.22975        1.72858        5.01881
H          1.71569        1.34754        6.98576
H          4.18680        1.49238        6.72302
H          5.17341        2.02231        4.49950
H          3.68392        2.40028        2.53460
H          2.33758        4.03376        0.95174
H          1.78822        6.43071        0.57087
H         -0.20202        7.44334        1.67524
H         -1.63565        6.05685        3.16654
H         -1.08083        3.65645        3.54590
H          0.49645       -1.79006       -3.69990
H          1.84655       -1.06666       -4.59329
H          1.03614        1.20927       -4.03892
H          0.00323        0.58098       -2.76898
H         -1.15885       -0.79689       -4.78709
H         -0.54106        0.57675       -5.75079
H         -5.24429        2.43098       -2.76544
H         -3.55680        2.84864       -3.16405
H         -4.44542        4.18231       -1.20799
H         -3.00434        3.20105       -0.78812
H         -5.10544        0.81490        0.95247
H         -3.40133        1.17311        0.52103
H         -5.65025        0.31792       -1.40562
H         -4.21123       -0.64856       -0.95219
H          5.41512        2.17859       -1.01120
H          6.47486        0.60008       -3.41210
H          6.93993        0.25443       -1.72960
H          7.25073        1.83818       -2.44406
H          4.47537        2.10454       -3.94014
H          5.40092        3.36574       -3.13793
H          3.71585        3.07395       -2.65463
H          4.00764       -1.01689        0.15267
H          5.31283        0.14655        0.39148
H          5.46079       -1.08482       -0.86456
