65

O          1.81605       -0.75914        1.90117
C          3.23142       -0.79961        2.03441
C          3.52556       -0.83540        3.52836
O          4.94785       -0.81116        3.68018
C          5.38458       -0.67051        5.02242
O          6.75294       -0.36271        5.00660
C          7.05380        0.94984        4.52566
C          8.43177        0.87975        3.87320
O          8.76031        2.17950        3.40897
C         10.13175        2.26821        3.00500
C         10.35434        1.35290        1.79969
N          9.92929       -0.05230        2.17551
C          8.49747       -0.14693        2.72372
C          7.48021        0.03978        1.59991
C          7.69935       -0.81438        0.33074
C          7.84114       -2.33152        0.60548
C          6.62369       -3.01326        1.24138
C          6.58404       -0.50868       -0.68050
C         10.56373        3.74636        2.78040
C          9.95807        4.39151        1.47979
C          8.42885        4.29836        1.32922
C         10.38617        5.85833        1.28537
C         10.14426        4.52875        4.04439
O         10.67663        3.85380        5.19149
C         12.10902        3.74360        2.68593
H          1.58560       -0.81258        0.96211
H          3.71099        0.09572        1.59366
H          3.66526       -1.69485        1.55290
H          3.09564       -1.74769        3.97861
H          3.06581        0.04064        4.02146
H          5.29707       -1.62072        5.57577
H          4.79064        0.11892        5.52865
H          7.09346        1.67239        5.35735
H          6.30529        1.28958        3.79411
H          9.16426        0.57130        4.65052
H         10.75089        1.89461        3.84594
H         11.40895        1.30328        1.50232
H          9.74739        1.64806        0.93656
H         10.57625       -0.41584        2.88872
H          9.99871       -0.67106        1.35547
H          8.42130       -1.15708        3.14950
H          7.42179        1.10193        1.31782
H          6.50442       -0.21227        2.04084
H          8.64257       -0.48995       -0.15867
H          8.72494       -2.52350        1.24391
H          8.07659       -2.82247       -0.35163
H          6.33021       -2.55613        2.19661
H          6.83650       -4.07340        1.42952
H          5.75133       -2.97431        0.57505
H          5.59435       -0.74923       -0.26793
H          6.71605       -1.08997       -1.60285
H          6.57684        0.55590       -0.95253
H         10.40653        3.83036        0.63888
H          7.90413        4.83329        2.13266
H          8.05216        3.26893        1.33485
H          8.12798        4.76195        0.38011
H          9.92304        6.52107        2.02963
H         10.05660        6.20831        0.29834
H         11.47251        5.99889        1.33302
H          9.04619        4.59071        4.10906
H         10.54954        5.55047        3.97490
H         10.53921        4.41450        5.96870
H         12.46189        3.34996        1.72117
H         12.55889        3.15431        3.49493
H         12.50543        4.76119        2.77878
