88

C          0.76654        0.04466        0.10246
C          2.29686        0.00467        0.13060
C          2.94118        1.00301       -0.83678
C          4.47328        0.98690       -0.82994
C          5.08374        1.99702       -1.80620
C          6.61561        2.01640       -1.82649
C          7.18117        3.03983       -2.81647
C          8.71106        3.11795       -2.84001
C          9.23857        4.16544       -3.82626
C         10.76303        4.32016       -3.81715
C         11.25708        5.37884       -4.80997
C         12.76948        5.62218       -4.75007
C         13.22786        6.65663       -5.78363
C         14.74140        6.97960       -5.65411
C         15.19986        7.89523       -6.73560
N         15.78379        7.45966       -7.83840
C         16.24166        8.46542       -8.79936
C         15.43931        9.75886       -8.52421
S         14.95940        9.57718       -6.70738
C         16.32337       11.00284       -8.65774
O         17.41620       10.87359       -7.77960
C         18.28573       12.02510       -7.77106
C         19.42011       11.77116       -6.79354
C         20.37169       12.96819       -6.66849
C         21.54717       12.69981       -5.72010
C         22.48045       13.90162       -5.55675
C         14.12279        9.85336       -9.32047
C         14.27891       10.08426      -10.84228
C         12.93117       10.05657      -11.52843
C         12.17868       11.23157      -11.66496
C         10.91852       11.20576      -12.26692
C         10.39352       10.00013      -12.73960
C         11.13541        8.82278      -12.60865
C         12.39499        8.85212      -12.00632
H          0.32972       -0.68081        0.80258
H          0.37968       -0.18838       -0.90096
H          0.38806        1.04062        0.37754
H          2.64463       -1.01377       -0.11250
H          2.65328        0.20828        1.15466
H          2.58858        2.02131       -0.59383
H          2.58107        0.79876       -1.86091
H          4.83149       -0.02786       -1.07782
H          4.83841        1.19487        0.19134
H          4.71449        3.00771       -1.55701
H          4.71134        1.78566       -2.82428
H          6.99489        1.01040       -2.07815
H          6.99418        2.23758       -0.81298
H          6.77424        4.03759       -2.57402
H          6.81245        2.80491       -3.83066
H          9.12913        2.12817       -3.09382
H          9.08046        3.35188       -1.82609
H          8.77731        5.14202       -3.59574
H          8.90253        3.90796       -4.84621
H         11.23682        3.34992       -4.04665
H         11.09614        4.58816       -2.79932
H         10.73200        6.33033       -4.61650
H         10.97323        5.07872       -5.83387
H         13.30816        4.67291       -4.91341
H         13.04765        5.96355       -3.73825
H         12.65455        7.58917       -5.66513
H         13.02155        6.28740       -6.80148
H         15.33286        6.05142       -5.69249
H         14.93484        7.44884       -4.67818
H         16.01915        6.47478       -7.94873
H         16.06946        8.10599       -9.82230
H         17.31878        8.64008       -8.64910
H         15.72604       11.91042       -8.43975
H         16.66258       11.08582       -9.70993
H         17.69927       12.91601       -7.47655
H         18.67171       12.19944       -8.79325
H         19.98020       10.87986       -7.12070
H         18.99022       11.53094       -5.80752
H         19.81056       13.84946       -6.31231
H         20.76352       13.23906       -7.66428
H         22.12072       11.83448       -6.09279
H         21.15478       12.40068       -4.73350
H         22.91277       14.20933       -6.52008
H         23.31359       13.66893       -4.88028
H         21.94817       14.76918       -5.14009
H         13.51328       10.66801       -8.89997
H         13.54399        8.92961       -9.15984
H         14.92888        9.31214      -11.28423
H         14.76563       11.05252      -11.02902
H         12.58762       12.18024      -11.30824
H         10.35098       12.13080      -12.37435
H          9.41343        9.97901      -13.21670
H         10.73566        7.88106      -12.98655
H         12.97397        7.92873      -11.92050
