36

Br         1.93648        1.86204       -0.42099
C          3.29437        0.49585       -0.07924
C          3.75787       -0.13675       -1.38522
C          4.87804       -1.17031       -1.12359
C          5.27252       -1.96324       -2.32065
N          5.07769       -3.26626       -2.40894
N          5.54723       -3.62589       -3.63304
C          6.02652       -2.57574       -4.28514
N          5.86608       -1.49842       -3.49016
C          6.28737       -0.12993       -3.86453
C          7.32437        0.52028       -2.93480
C          8.63266       -0.23300       -2.67934
C          9.50589       -0.58450       -3.92963
Br         9.90375        0.96173       -5.04854
F         10.64130       -1.18985       -3.56136
F          8.80391       -1.49177       -4.69389
Br         9.70777        0.80656       -1.42117
F          8.34422       -1.45569       -2.08259
C          5.54910       -5.04389       -4.04093
C          6.75219       -5.79281       -3.47551
H          2.82865       -0.23408        0.59235
H          4.10776        1.00704        0.44895
H          4.10385        0.65927       -2.06115
H          2.90837       -0.62961       -1.88005
H          4.54252       -1.90885       -0.38239
H          5.76715       -0.68255       -0.69447
H          6.47475       -2.57821       -5.27247
H          5.39098        0.50357       -3.87983
H          6.65978       -0.19208       -4.89294
H          6.88843        0.72070       -1.94800
H          7.56385        1.50060       -3.36706
H          5.52957       -5.05763       -5.13857
H          4.60108       -5.45621       -3.67367
H          7.69557       -5.38350       -3.86032
H          6.68906       -6.84623       -3.77569
H          6.76472       -5.74954       -2.37947
