118

C          1.05927        4.91158       19.73832
C          2.56259        4.90414       19.45002
C          3.00933        3.73188       18.56898
C          4.51030        3.73239       18.26343
C          4.96349        2.57544       17.36680
C          6.45829        2.61505       17.03434
C          6.92645        1.48167       16.11572
C          8.41713        1.56199       15.77402
C          8.91797        0.44777       14.84893
C         10.41288        0.56542       14.53713
C         10.96394       -0.52345       13.61092
C         12.47139       -0.38566       13.37657
C         13.08504       -1.46808       12.48280
C         14.60643       -1.33484       12.36110
C         15.28147       -2.43416       11.53496
C         16.81025       -2.34541       11.57823
C         17.52972       -3.46744       10.81976
C         19.05752       -3.46895       10.99520
C         19.50725       -3.83231       12.41661
C         21.02891       -3.80607       12.60075
C         21.50187       -4.31610       13.98479
C         20.87341       -3.57599       15.18050
C         21.39731       -2.14235       15.28450
C         22.91578       -2.12746       15.36546
N         23.55761       -2.88040       14.21221
C         23.04035       -4.33254       14.13028
C         23.73511       -5.12802       13.02409
O         24.98927       -5.57525       13.49652
C         25.66980       -6.46047       12.58124
C         27.05270       -6.74149       13.14086
C         27.85167       -7.74533       12.30112
C         29.28280       -7.92972       12.81746
C         30.09648       -8.96081       12.03055
C         31.53954       -9.09705       12.52614
C         32.36077      -10.13558       11.75651
C         33.80807      -10.25421       12.24371
C         34.63436      -11.29071       11.47480
C         36.08160      -11.39584       11.96157
C         25.06617       -2.73427       14.24120
C         25.47301       -1.39396       13.65692
F         24.86031       -1.27369       12.39563
H          0.77335        5.76473       20.36917
H          0.74732        3.99416       20.25962
H          0.47477        4.97625       18.80830
H          3.12103        4.87612       20.40123
H          2.84857        5.85159       18.96195
H          2.44418        3.75484       17.62021
H          2.73393        2.78113       19.05924
H          5.07616        3.70270       19.21149
H          4.78133        4.68940       17.78292
H          4.38155        2.59261       16.42837
H          4.71981        1.61490       17.85423
H          7.04136        2.58767       17.97206
H          6.69734        3.58454       16.56208
H          6.33538        1.49922       15.18320
H          6.70954        0.50898       16.59156
H          9.00461        1.54599       16.70930
H          8.62774        2.54021       15.30641
H          8.34134        0.46347       13.90753
H          8.71489       -0.53428       15.31140
H         10.97932        0.54969       15.48535
H         10.61145        1.55483       14.08831
H         10.43227       -0.49271       12.64406
H         10.74971       -1.51701       14.04269
H         12.98558       -0.39716       14.35447
H         12.68203        0.60731       12.94125
H         12.62489       -1.43046       11.48027
H         12.83903       -2.46405       12.89184
H         15.04211       -1.33591       13.37686
H         14.85499       -0.34854       11.93119
H         14.93175       -2.38847       10.48949
H         14.96720       -3.42174       11.91629
H         17.11763       -2.35025       12.63889
H         17.13604       -1.36935       11.17667
H         17.29485       -3.38792        9.74656
H         17.12960       -4.44484       11.14244
H         19.45823       -2.47562       10.72547
H         19.50544       -4.18219       10.28364
H         19.13032       -4.83861       12.67058
H         19.03577       -3.14128       13.13152
H         21.38462       -2.77636       12.40554
H         21.48774       -4.42741       11.81539
H         21.20688       -5.37613       14.05795
H         21.11334       -4.12219       16.10721
H         19.78000       -3.57756       15.09850
H         21.01114       -1.64513       16.18557
H         21.05779       -1.53252       14.43206
H         23.27580       -2.62526       16.27767
H         23.31818       -1.10717       15.34701
H         23.25915       -2.42619       13.33181
H         23.32330       -4.78298       15.09441
H         23.84389       -4.53035       12.09458
H         23.08116       -5.98509       12.77338
H         25.73279       -5.98288       11.58506
H         25.07860       -7.38887       12.47363
H         26.94646       -7.11680       14.17142
H         27.60681       -5.79007       13.20757
H         27.88433       -7.41064       11.24977
H         27.33164       -8.71836       12.29635
H         29.25101       -8.22531       13.88087
H         29.80396       -6.95649       12.79059
H         30.10223       -8.68440       10.96146
H         29.59442       -9.94247       12.08589
H         31.53347       -9.35919       13.59896
H         32.04014       -8.11479       12.45981
H         32.35746       -9.87980       10.68218
H         31.86714      -11.12045       11.83265
H         33.81223      -10.50989       13.31827
H         34.30021       -9.26817       12.16821
H         34.62387      -11.03721       10.40107
H         34.14504      -12.27619       11.55580
H         36.60850      -10.43527       11.85929
H         36.64559      -12.14549       11.38989
H         36.12690      -11.68469       13.02233
H         25.48904       -3.56444       13.66466
H         25.40324       -2.84182       15.28078
H         26.56313       -1.36068       13.52340
H         25.15890       -0.52576       14.25513
