56

C          4.14810       -1.32766        0.04720
C          5.24683       -0.30775       -0.25605
C          4.74778        0.80514       -1.18534
C          5.80255        1.78827       -1.60238
O          7.01698        1.56376       -1.61890
O          5.27540        2.96178       -2.00646
C          6.16338        4.04892       -2.38323
C          6.72931        3.93584       -3.79583
N          7.84474        2.97567       -3.80283
C          8.54689        2.52582       -4.84316
N          9.85264        2.15808       -4.79156
C         10.28909        1.88567       -6.07492
N          9.32874        2.07081       -6.93933
N          8.21900        2.41613       -6.16600
C          6.94844        2.32361       -6.88841
O          6.81320        2.86290       -7.94070
C          5.85583        1.34308       -6.32748
C          6.10241       -0.19425       -6.64029
C          7.11726       -0.97667       -5.70929
C          6.83420       -0.84903       -4.18015
O          5.82105       -1.26872       -3.68162
O          7.83850       -0.21607       -3.55180
F          7.02776       -2.28258       -6.05239
F          8.37797       -0.54161       -6.01691
F          4.90218       -0.80172       -6.54685
F          6.55336       -0.28708       -7.91696
F          5.71145        1.47342       -4.96578
F          4.69690        1.70099       -6.90305
C         11.68466        1.43067       -6.38186
C         12.55962        1.37962       -5.14565
C         13.22100        2.53287       -4.69300
C         13.99911        2.49192       -3.53303
C         14.12290        1.29884       -2.81518
C         13.46867        0.14653       -3.25945
C         12.68808        0.18676       -4.41782
H          4.51670       -2.10520        0.72824
H          3.80263       -1.82371       -0.87096
H          3.27721       -0.85524        0.52389
H          6.10249       -0.81855       -0.72174
H          5.62212        0.13902        0.67764
H          3.90456        1.36054       -0.75000
H          4.36244        0.36295       -2.12302
H          6.96648        4.14117       -1.63677
H          5.52559        4.93784       -2.32844
H          7.10964        4.92720       -4.09004
H          5.92152        3.65926       -4.48416
H          7.98292        2.50593       -2.89471
H         10.45736        2.17704       -3.97057
H          7.54758       -0.00592       -2.62785
H         12.09984        2.10860       -7.14243
H         11.61465        0.44010       -6.85603
H         13.14449        3.46237       -5.26205
H         14.52099        3.38888       -3.19842
H         14.73951        1.26445       -1.91668
H         13.57575       -0.78948       -2.71067
H         12.18925       -0.71922       -4.76868
