66

C          1.35537        0.42302       -0.04160
C          2.67572        0.26366       -0.18351
C          3.22415       -0.75407       -1.11237
O          2.58547       -1.51145       -1.81840
O          4.59337       -0.73978       -1.07105
C          5.24589       -1.70200       -1.92777
C          6.70822       -1.76598       -1.51806
C          7.49913       -2.75333       -2.38025
C          8.96115       -2.89482       -1.94438
C          9.72450       -3.88796       -2.82652
C         11.14800       -4.14359       -2.32050
C         11.99705       -5.12590       -3.16499
C         12.19882       -4.59271       -4.60142
C         13.32104       -5.21422       -5.44619
C         13.23847       -4.72503       -6.89906
C         14.36127       -5.30675       -7.76161
S         14.16806       -4.73077       -9.47082
O         12.95587       -5.29420      -10.01849
O         14.43539       -3.31289       -9.52326
Cl        15.77148       -5.70942      -10.36335
N         13.34578       -5.17320       -2.50161
C         13.78986       -6.34285       -2.20401
C         12.84606       -7.40389       -2.60098
C         11.55527       -6.63996       -3.00872
C         10.82313       -7.34504       -4.17554
C          9.39787       -6.89771       -4.41311
C          8.39447       -7.20423       -3.47947
C          7.08574       -6.75643       -3.66491
C          6.75814       -5.99739       -4.79313
C          7.74035       -5.71319       -5.74414
C          9.04868       -6.16771       -5.55649
H          0.94144        1.16625        0.63902
H          0.65934       -0.19446       -0.61159
H          3.39769        0.86573        0.36930
H          5.12770       -1.38376       -2.97669
H          4.74466       -2.67646       -1.82192
H          6.76712       -2.05998       -0.45750
H          7.15116       -0.75970       -1.59045
H          7.46174       -2.43722       -3.43701
H          7.01895       -3.74621       -2.34694
H          8.99605       -3.23009       -0.89328
H          9.45680       -1.90939       -1.96885
H          9.74642       -3.51079       -3.86020
H          9.16776       -4.83394       -2.85994
H         11.10444       -4.53136       -1.28872
H         11.68788       -3.18066       -2.27146
H         12.35898       -3.50333       -4.54201
H         11.23427       -4.71690       -5.11261
H         13.26511       -6.31428       -5.43714
H         14.30838       -4.95167       -5.03088
H         13.28685       -3.62554       -6.92644
H         12.26530       -5.01121       -7.32684
H         14.33359       -6.40350       -7.81363
H         15.35978       -4.97623       -7.44493
H         13.87334       -4.31392       -2.32691
H         14.76688       -6.47174       -1.73144
H         12.70064       -8.13813       -1.79458
H         13.29986       -7.97315       -3.43507
H         10.88055       -6.66223       -2.13952
H         10.81870       -8.41949       -3.92814
H         11.40330       -7.25622       -5.10519
H          8.63520       -7.80451       -2.59814
H          6.31788       -7.00700       -2.93236
H          5.73593       -5.64752       -4.93806
H          7.48643       -5.14705       -6.64101
H          9.80179       -5.96324       -6.32185
