65

C          0.76197       -1.08448       -0.78132
C          2.29052       -1.16076       -0.73665
C          2.97214       -0.25626       -1.77010
C          4.50345       -0.30147       -1.70839
C          5.17128        0.54338       -2.80075
C          6.68579        0.57503       -2.67927
O          7.21242        1.33356       -3.78830
C          8.55314        1.74881       -3.67071
C          8.61759        3.25847       -3.95203
N          7.90159        3.55186       -5.21816
C          6.74355        4.21608       -5.24465
N          5.89713        4.08408       -6.28332
N          6.47738        5.07239       -4.24977
C          7.43935        5.21053       -3.12607
O          7.98124        3.90299       -2.88093
C          6.66216        5.57258       -1.85393
C          5.56327        4.57404       -1.46886
C          4.97523        4.88641       -0.09983
F          3.97858        3.94895        0.19296
C          8.51467        6.24748       -3.50391
C          9.60064        6.46597       -2.44506
C         10.75772        7.33621       -2.97135
C         11.78876        7.61554       -1.90265
C         12.84028        6.71739       -1.66847
C         13.76657        6.95171       -0.64992
C         13.65301        8.09118        0.15122
C         12.61081        8.99444       -0.07347
C         11.68685        8.75623       -1.09349
H          0.30657       -1.74951       -0.03533
H          0.37391       -1.37934       -1.76772
H          0.40597       -0.06399       -0.57619
H          2.61298       -2.20286       -0.90006
H          2.64339       -0.88927        0.27235
H          2.63426        0.78485       -1.62312
H          2.63767       -0.54589       -2.78205
H          4.84372       -1.34727       -1.79590
H          4.83542        0.04651       -0.71501
H          4.79119        1.57811       -2.75745
H          4.90254        0.14802       -3.79409
H          7.10659       -0.44671       -2.69700
H          6.99289        1.05421       -1.73172
H          9.20100        1.21472       -4.39179
H          8.96503        1.58238       -2.66181
H          9.66568        3.59142       -4.07390
H          8.14201        2.98115       -6.02338
H          5.91703        3.25607       -6.86592
H          5.11683        4.71899       -6.39878
H          5.50490        5.30349       -4.07093
H          6.25508        6.58953       -1.97662
H          7.40502        5.63325       -1.04658
H          5.97353        3.55514       -1.45656
H          4.73293        4.57580       -2.19538
H          4.51228        5.88617       -0.06526
H          5.73931        4.82061        0.69171
H          7.99428        7.19419       -3.71844
H          8.97884        5.94639       -4.45801
H         10.00167        5.49873       -2.10353
H          9.17448        6.95286       -1.55503
H         10.35391        8.28751       -3.35379
H         11.23313        6.83034       -3.82801
H         12.94209        5.82949       -2.29785
H         14.58385        6.24835       -0.48645
H         14.37874        8.27861        0.94304
H         12.52037        9.89039        0.54183
H         10.88012        9.47190       -1.27117
