43

Br         1.23765       -0.75732        3.25663
C          3.10548       -1.24896        2.78340
C          3.14572       -2.48753        1.91109
C          2.69854       -2.30439        0.44715
C          1.20047       -2.25221        0.21907
C          0.40875       -3.27672        0.72160
N         -0.92941       -3.28912        0.53770
C         -1.61129       -2.33363       -0.15222
C         -0.84828       -1.31581       -0.70255
C          0.54639       -1.24681       -0.54146
C          1.26833       -0.07518       -1.14215
C          1.18759        1.16177       -0.20818
C          2.16170        2.26983       -0.60894
C          3.61230        1.90863       -0.30212
O          3.95357        0.88556        0.25447
O          4.55014        2.80789       -0.67910
C         -3.10309       -2.48521       -0.24165
C         -3.81390       -1.44385       -1.12738
C         -5.27745       -1.70686       -1.21198
C         -6.25875       -0.90670       -0.77859
F         -6.03194        0.26536       -0.18979
F         -7.54562       -1.17133       -0.88511
F         -5.61984       -2.88656       -1.79524
Br         5.04911       -3.03977        1.88223
H          3.58661       -1.42171        3.74881
H          3.52990       -0.37359        2.28126
H          2.64289       -3.32834        2.40503
H          3.09523       -3.15002       -0.13489
H          3.18113       -1.39908        0.06189
H          0.81093       -4.11361        1.29009
H         -1.46096       -4.06168        0.94082
H         -1.35035       -0.54148       -1.28062
H          0.81113        0.16897       -2.11284
H          2.31824       -0.32525       -1.33104
H          1.40012        0.85560        0.82513
H          0.16050        1.55491       -0.21536
H          1.92162        3.19293       -0.05576
H          2.07048        2.52287       -1.67889
H          4.14146        3.58384       -1.10332
H         -3.52106       -2.43689        0.77900
H         -3.33389       -3.49613       -0.61850
H         -3.39344       -1.46878       -2.14748
H         -3.66726       -0.42931       -0.73179
