77

Br         0.05950        1.56077       -1.15826
C          1.53546        2.00624        0.04399
C          2.78692        2.38826       -0.74118
C          3.91957        2.72024        0.22813
N          5.23733        2.96636       -0.46236
C          6.41428        3.02676        0.51796
C          6.88028        4.49285        0.53877
C          5.79492        5.27732       -0.22816
C          5.30304        4.26076       -1.26366
C          6.23590        3.97391       -2.45751
O          5.91057        2.71587       -3.03724
C          4.94410        2.80708       -4.11624
C          4.64808        1.40986       -4.63500
C          3.74494        1.40210       -5.88858
C          2.22675        1.35506       -5.63264
C          1.62138        2.48502       -4.78561
C          1.73703        3.89574       -5.37701
C          1.25805        4.98197       -4.41044
C          6.23413        6.63699       -0.78289
C          5.18315        7.34783       -1.65557
C          3.74574        7.50388       -1.10906
C          3.63507        8.39468        0.14928
C          3.90374        7.73065        1.51396
C          2.95669        6.60446        1.83885
C          3.16298        5.55307        2.65793
C          4.45852        5.29035        3.38192
C          2.04201        4.60147        2.99378
C          2.85473        8.06019       -2.23023
H          1.69125        1.11859        0.66797
H          1.17368        2.82960        0.66835
H          2.55477        3.24559       -1.38935
H          3.08092        1.55417       -1.39849
H          4.09204        1.88174        0.91742
H          3.69606        3.61641        0.82490
H          5.38828        2.22295       -1.17522
H          7.18063        2.32959        0.16092
H          6.05027        2.67376        1.48833
H          7.85790        4.59343        0.04789
H          6.99333        4.85814        1.56565
H          4.94997        5.45090        0.45652
H          4.29070        4.47630       -1.62661
H          7.28710        3.91222       -2.13737
H          6.15768        4.79201       -3.18974
H          5.38300        3.42970       -4.91574
H          4.03254        3.31229       -3.75608
H          4.18978        0.80329       -3.83524
H          5.61286        0.93685       -4.87155
H          4.00525        0.51740       -6.48668
H          4.00110        2.26540       -6.52502
H          1.98617        0.39436       -5.14822
H          1.72023        1.32979       -6.61123
H          2.06663        2.47138       -3.77559
H          0.55625        2.25962       -4.61652
H          1.15252        3.94484       -6.31029
H          2.77759        4.10767       -5.67399
H          0.21660        4.81411       -4.09966
H          1.31482        5.98324       -4.85925
H          1.86928        4.99724       -3.49187
H          7.15971        6.52012       -1.37083
H          6.51267        7.27158        0.07178
H          5.11418        6.82520       -2.62537
H          5.57027        8.35024       -1.90142
H          3.35016        6.50362       -0.84599
H          2.61390        8.80766        0.18318
H          4.30094        9.26564        0.03405
H          3.78575        8.51289        2.28511
H          4.95199        7.40958        1.60399
H          1.95066        6.71036        1.41537
H          5.27078        5.95869        3.07321
H          4.78946        4.24651        3.24655
H          4.32543        5.42040        4.46792
H          1.14526        4.79564        2.39079
H          1.75748        4.69669        4.05438
H          2.33758        3.54696        2.86063
H          3.16204        9.08033       -2.50725
H          1.80252        8.10436       -1.91798
H          2.90979        7.44091       -3.13683
