56

C          0.23466        6.53607        2.04345
C          1.68329        6.68403        2.51665
C          2.71035        6.34981        1.42866
C          4.16690        6.49590        1.88345
C          5.18053        6.12795        0.79472
C          6.64239        6.26464        1.23578
C          7.63238        5.83670        0.14431
C          9.09228        6.02337        0.51156
O          9.39954        5.15326        1.63499
C         10.72557        5.17494        2.04977
P         11.12581        6.69783        3.06067
C          9.72980        7.07100        4.15099
C          9.74380        8.43590        4.89725
C          9.92276        9.63746        3.96776
O          8.96878        9.51451        2.90770
O          8.55214        8.52626        5.65676
C         12.70817        6.52680        3.94206
C         13.89926        6.09472        3.06180
C         14.21856        7.03338        1.88981
C         15.50643        6.64240        1.16094
H         -0.47722        6.77670        2.84452
H          0.02548        5.50818        1.71183
H          0.02006        7.20524        1.19701
H          1.85446        6.03135        3.38957
H          1.85170        7.71490        2.87238
H          2.53554        6.99771        0.55171
H          2.54205        5.31679        1.07669
H          4.33760        5.85993        2.77025
H          4.34361        7.53469        2.21581
H          5.00825        6.75828       -0.09502
H          4.99863        5.08963        0.46756
H          6.80711        5.65575        2.14016
H          6.84476        7.31355        1.52122
H          7.45437        6.42220       -0.77297
H          7.46792        4.78175       -0.12761
H          9.28440        7.07644        0.79579
H          9.75990        5.76116       -0.32820
H         11.45790        5.13157        1.22077
H         10.89613        4.31285        2.71352
H         11.24986        7.77925        2.16240
H          9.65679        6.25480        4.88509
H          8.84009        7.00977        3.50442
H         10.56281        8.44807        5.63363
H         10.95649        9.67596        3.56909
H          9.76126       10.55053        4.56092
H          8.77305       10.39284        2.54800
H          7.81858        8.71818        5.04535
H         12.52465        5.80291        4.75217
H         12.89839        7.50135        4.42073
H         13.73757        5.06917        2.69271
H         14.77379        6.03328        3.72788
H         14.30161        8.06841        2.26214
H         13.38533        7.03676        1.16415
H         16.37319        6.68961        1.83502
H         15.70330        7.31672        0.31816
H         15.44848        5.61920        0.76310
