54

C          1.95335        0.77136       -2.95416
C          3.46072        0.55445       -2.80223
C          4.10082        1.55276       -1.82676
C          5.59721        1.35280       -1.69871
O          6.11144        2.32313       -0.72626
C          7.45172        2.56042       -0.78819
S          7.76860        3.89228       -2.13878
C          6.89687        5.28649       -1.36119
C          6.87120        6.43963       -2.36583
O          7.58038        6.45681       -3.35595
O          5.99644        7.36480       -1.98437
C          5.88889        8.57478       -2.82955
C          6.88889        9.62749       -2.39556
C          9.53040        4.35115       -1.95675
C         10.36736        3.09324       -2.27806
O          9.64890        2.19890       -3.11142
C          9.71071        2.48341       -4.53142
C          8.72399        1.56808       -5.23348
C          8.72251        1.75138       -6.75568
C          7.70524        0.84932       -7.46474
C          7.69710        1.03183       -8.98402
H          1.52099        0.05506       -3.66447
H          1.72886        1.78208       -3.32407
H          1.43201        0.64305       -1.99509
H          3.94719        0.64166       -3.78808
H          3.65384       -0.47371       -2.45567
H          3.63919        1.45606       -0.83116
H          3.90467        2.58276       -2.16853
H          6.10717        1.50847       -2.66540
H          5.85051        0.34548       -1.32957
H          8.07216        1.71613       -1.12647
H          7.80764        2.98890        0.15845
H          7.38523        5.58857       -0.42348
H          5.88689        4.92184       -1.12534
H          4.85288        8.89471       -2.67174
H          6.02958        8.26871       -3.87359
H          6.75883        9.88717       -1.33695
H          6.72896       10.53824       -2.98926
H          7.92181        9.29631       -2.56375
H          9.70715        4.73416       -0.94242
H          9.65517        5.16714       -2.68010
H         10.58772        2.54268       -1.35279
H         11.32803        3.39859       -2.72549
H         10.74419        2.31057       -4.87920
H          9.45875        3.54331       -4.72242
H          7.71357        1.76638       -4.83609
H          8.96528        0.52396       -4.97748
H          9.73108        1.54541       -7.15285
H          8.50750        2.80589       -7.00191
H          6.69819        1.05303       -7.06175
H          7.92277       -0.20356       -7.21906
H          7.44239        2.06527       -9.26176
H          6.96293        0.36979       -9.46188
H          8.68115        0.80482       -9.41935
