108

C          0.67978        0.34392        0.53040
C          2.20323        0.46530        0.44177
C          2.82366       -0.44943       -0.61982
C          4.34651       -0.32826       -0.73153
C          4.94991       -1.22002       -1.82096
C          6.47170       -1.10230       -1.95128
C          7.05338       -1.98303       -3.06109
C          8.57323       -1.87191       -3.21697
C          9.12910       -2.74811       -4.34363
C         10.64437       -2.63312       -4.53626
C         11.17481       -3.50708       -5.67690
C         12.67680       -3.35246       -5.93426
C         13.18782       -4.23395       -7.07809
C         14.66774       -4.01791       -7.41084
C         15.16288       -4.90468       -8.55779
C         16.61896       -4.63801       -8.95230
C         17.10071       -5.54483      -10.09192
C         18.54243       -5.22352      -10.51290
C         19.15584       -6.14447      -11.59074
C         18.45944       -5.94620      -12.95279
C         18.83030       -6.85491      -14.13339
C         18.13740       -6.42810      -15.43889
P         19.07190       -7.11574      -16.84514
O         20.52977       -6.85572      -16.74913
O         18.80853       -8.70363      -16.86063
C         17.50375       -9.30074      -17.11509
C         17.72283      -10.70899      -17.62933
O         18.29911       -6.48633      -18.09684
C         18.95558       -6.39063      -19.40791
C         18.77629       -7.65593      -20.22609
N         20.63886       -5.66680      -11.69496
C         21.66110       -6.61669      -12.29076
C         21.46718       -8.02613      -11.71553
O         20.09882       -8.42577      -11.84266
C         19.22625       -7.60115      -11.08782
C         22.32715       -8.99378      -12.44026
N         23.31017       -9.69560      -11.96553
N         23.82670      -10.42605      -13.02557
C         23.10856      -10.10471      -14.07929
O         22.12749       -9.18091      -13.78479
S         23.30170      -10.70896      -15.68478
C         21.86176       -9.94594      -16.53352
C         21.88312      -10.37589      -17.99670
H          0.26434        1.01535        1.29463
H          0.37494       -0.68132        0.78859
H          0.20274        0.59726       -0.42824
H          2.65009        0.23726        1.42427
H          2.47722        1.51127        0.22223
H          2.36817       -0.22704       -1.60105
H          2.55684       -1.49770       -0.39693
H          4.80646       -0.57508        0.24159
H          4.61481        0.72411       -0.93254
H          4.48333       -0.97226       -2.79092
H          4.68226       -2.27260       -1.62041
H          6.94430       -1.36377       -0.98819
H          6.74106       -0.04856       -2.14261
H          6.57140       -1.72183       -4.01994
H          6.78405       -3.03668       -2.86831
H          9.06174       -2.14350       -2.26464
H          8.84525       -0.81830       -3.40564
H          8.62420       -2.48378       -5.28975
H          8.86536       -3.80263       -4.14825
H         11.15754       -2.90297       -3.59659
H         10.90789       -1.57841       -4.73137
H         10.62462       -3.26487       -6.60350
H         10.94709       -4.56592       -5.46125
H         13.23659       -3.58587       -5.01173
H         12.89853       -2.29500       -6.16249
H         12.58403       -4.03977       -7.98224
H         13.01915       -5.29550       -6.82570
H         15.28041       -4.20418       -6.51161
H         14.82935       -2.95778       -7.67338
H         14.51611       -4.75316       -9.43972
H         15.04752       -5.96597       -8.27627
H         17.27226       -4.77657       -8.07341
H         16.72984       -3.58149       -9.25222
H         16.42261       -5.43158      -10.95245
H         17.02197       -6.59557       -9.76946
H         19.17978       -5.27414       -9.60978
H         18.58506       -4.17858      -10.86864
H         18.59775       -4.88853      -13.24655
H         17.38148       -6.04315      -12.75315
H         18.59357       -7.90254      -13.90379
H         19.90998       -6.83300      -14.32769
H         18.16757       -5.33524      -15.56948
H         17.08032       -6.72977      -15.47814
H         16.95838       -8.68368      -17.84409
H         16.93796       -9.30627      -16.16868
H         18.26538      -10.69873      -18.58343
H         16.75495      -11.20296      -17.79050
H         18.29673      -11.30617      -16.90856
H         20.01638       -6.15439      -19.24386
H         18.47170       -5.52993      -19.88575
H         19.28685       -8.51215      -19.76501
H         19.21095       -7.50706      -21.22446
H         17.71358       -7.90146      -20.35399
H         20.93190       -5.42978      -10.73572
H         20.64690       -4.78249      -12.22217
H         22.65599       -6.22203      -12.04640
H         21.52986       -6.61588      -13.37739
H         21.78122       -8.05798      -10.65372
H         19.52067       -7.61048      -10.01855
H         18.23070       -8.05534      -11.16376
H         21.92225       -8.85509      -16.44250
H         20.94804      -10.28726      -16.03245
H         22.79157      -10.03258      -18.50934
H         21.01975       -9.92402      -18.50194
H         21.81179      -11.46634      -18.10931
