41

F          2.19671       -0.37399        1.91291
C          3.44299       -0.03130        1.37998
C          3.42692       -0.24088       -0.12771
C          4.78220        0.11483       -0.74699
C          4.86874       -0.02063       -2.27034
C          6.03078        0.80447       -2.87130
N          6.61061       -0.08464       -3.89016
C          6.17667       -1.34824       -3.72406
N          6.66980       -2.37856       -4.41869
C          6.52385       -3.77624       -4.16050
C          6.79327       -4.32817       -2.90804
C          6.65619       -5.70404       -2.71287
C          6.28842       -6.52006       -3.78609
C          6.06197       -5.98011       -5.05454
C          6.17699       -4.59875       -5.25369
O          5.98356       -3.94357       -6.43148
C          5.68463       -4.72301       -7.60272
N          5.20673       -1.40108       -2.77573
N          4.29507       -2.46884       -2.88673
O          4.16777       -3.02415       -1.57812
O          3.04145       -1.86270       -3.19879
H          4.19870       -0.66850        1.86914
H          3.64079        1.02034        1.64781
H          2.63847        0.39003       -0.56754
H          3.16087       -1.28551       -0.33295
H          5.59511       -0.47715       -0.29586
H          5.00826        1.17101       -0.51874
H          3.91518        0.26207       -2.73911
H          6.78424        1.03251       -2.10147
H          5.68356        1.74314       -3.31883
H          7.53940        0.09455       -4.26024
H          7.13497       -2.14108       -5.29411
H          7.10773       -3.67969       -2.08964
H          6.86725       -6.13613       -1.73565
H          6.19244       -7.59638       -3.64372
H          5.79510       -6.63557       -5.88121
H          5.57620       -3.99810       -8.41532
H          4.74281       -5.27750       -7.47700
H          6.50452       -5.41899       -7.83406
H          4.30575       -3.97576       -1.74831
H          2.63703       -2.51302       -3.80122
