77

C          2.13842       -0.60265        1.19762
C          3.46486       -0.85776        0.47790
C          3.57660       -0.13150       -0.86798
C          4.92210       -0.35545       -1.56517
C          5.04282        0.36043       -2.91558
C          6.42462        0.16687       -3.55527
C          6.53953        0.88721       -4.90005
S          8.27115        0.68246       -5.47712
C          8.20481        1.50301       -6.98665
N          7.21771        2.09464       -7.62172
N          7.75751        2.60165       -8.80375
C          9.00294        2.26759       -8.78891
O          9.40427        1.58216       -7.69254
N          9.97021        2.58471       -9.80655
C         11.24856        3.16290       -9.20044
C         12.22557        3.56372      -10.30674
N         12.49569        2.50926      -11.26512
C         11.28254        1.99090      -11.86584
C         10.21254        1.41162      -10.90299
C          8.86122        1.19673      -11.59359
C          8.29309        2.35647      -12.41785
O          6.95895        1.98995      -12.72627
C         10.67018        0.16719      -10.13103
C         10.97820       -1.06567      -11.01677
C         10.47041       -2.38169      -10.40206
P          8.67017       -2.68396      -10.45396
O          8.26468       -4.05037      -10.06060
O          8.11026       -1.46479       -9.55576
C          6.67345       -1.39521       -9.26353
C          6.37332       -1.98794       -7.90068
O          8.19911       -2.23509      -11.93431
C          7.87737       -3.24096      -12.94868
C          9.08618       -3.56576      -13.80737
H          2.09075       -1.14203        2.15321
H          1.28283       -0.93041        0.58871
H          1.99988        0.46715        1.41314
H          3.59550       -1.94112        0.31603
H          4.30151       -0.54718        1.12648
H          3.42200        0.95081       -0.71197
H          2.75762       -0.46131       -1.53121
H          5.08417       -1.43753       -1.71128
H          5.73568       -0.01478       -0.90114
H          4.85160        1.43866       -2.77967
H          4.26106       -0.00685       -3.60219
H          6.62352       -0.90851       -3.69375
H          7.19813        0.54419       -2.86563
H          6.33953        1.96308       -4.81325
H          5.87305        0.45964       -5.66030
H          9.50874        3.33042      -10.35765
H         11.66301        2.38888       -8.54535
H         10.93627        4.01668       -8.58284
H         13.16068        3.89302       -9.83367
H         11.82743        4.43740      -10.85338
H         13.10399        1.78183      -10.89190
H         11.53355        1.19921      -12.58567
H         10.83678        2.80826      -12.45696
H          8.10535        0.90789      -10.85041
H          8.95418        0.31932      -12.24821
H          8.88306        2.52625      -13.33566
H          8.30399        3.31340      -11.84437
H          6.57314        2.65800      -13.31435
H          9.87298       -0.10577       -9.43020
H         11.55937        0.39849       -9.52669
H         12.06347       -1.14362      -11.17380
H         10.53617       -0.96029      -12.01755
H         10.78934       -2.49558       -9.35479
H         10.89523       -3.23882      -10.94590
H          6.11711       -1.90876      -10.06112
H          6.42357       -0.32604       -9.30976
H          6.59061       -3.06311       -7.88479
H          5.30902       -1.84451       -7.66426
H          6.97362       -1.49829       -7.12188
H          7.07277       -2.78666      -13.54125
H          7.48712       -4.13355      -12.44101
H          9.50789       -2.65895      -14.26231
H          8.79152       -4.24521      -14.61932
H          9.87018       -4.06957      -13.22540
