58

C          1.44990        0.33105       -1.32295
C          2.75738       -0.03709       -0.61724
C          3.14005        0.94501        0.49617
C          4.45250        0.58732        1.20118
C          4.81980        1.56200        2.32648
C          6.13293        1.18666        3.02817
C          6.46179        2.16806        4.15491
S          8.01734        1.58963        4.94888
C          8.24659        2.77669        6.15272
N          7.50496        3.85310        6.44869
N          8.11790        4.46751        7.48271
C          9.19828        3.77121        7.79115
O          9.33222        2.66778        6.96984
C         10.20472        3.97215        8.78024
N         10.25279        4.97247        9.64504
C          9.21968        6.00270        9.86757
C          8.39071        5.75233       11.15088
C          7.37993        6.90065       11.28059
C          7.70552        4.38148       11.14973
C         11.47096        4.91526       10.49675
C         12.06232        3.52063       10.21535
C         11.36590        3.03893        8.92919
C         12.42670        6.11606       10.23522
C         12.67982        6.52407        8.75672
F         13.67625        7.43360        8.71142
F         13.06341        5.41454        8.03815
F         11.90380        7.23065       10.85291
F         13.61119        5.83073       10.83982
H          1.20232       -0.39231       -2.11128
H          1.51462        1.32400       -1.79237
H          0.60632        0.35383       -0.61697
H          3.57541       -0.08499       -1.35581
H          2.67481       -1.05175       -0.19198
H          2.32504        0.98732        1.24002
H          3.21716        1.96254        0.07440
H          5.27083        0.55856        0.46104
H          4.38015       -0.43397        1.61405
H          4.00406        1.59046        3.06885
H          4.90065        2.58389        1.91839
H          6.95500        1.17199        2.29402
H          6.05264        0.16516        3.43514
H          5.68189        2.19077        4.92686
H          6.63169        3.18723        3.78487
H          8.56837        6.01512        8.98637
H          9.73081        6.97045        9.94780
H          9.07460        5.80717       12.01556
H          6.66653        6.89869       10.44337
H          7.87669        7.88037       11.30512
H          6.80528        6.79516       12.20956
H          7.00452        4.28666       10.30793
H          7.13417        4.24492       12.07694
H          8.42331        3.54927       11.09407
H         11.16998        5.03454       11.54757
H         11.82841        2.85509       11.05435
H         13.15097        3.55323       10.11511
H         11.02262        1.99694        8.98368
H         12.00785        3.10894        8.03754
H         11.77756        6.95030        8.28738
