84

C          0.09441       -0.03467        0.05144
C          1.60851       -0.26041        0.04466
C          2.22031       -0.24004       -1.36077
C          3.73966       -0.43522       -1.37160
C          4.35773       -0.39160       -2.77277
C          5.88604       -0.49871       -2.76847
C          6.51340       -0.42138       -4.16380
C          8.04478       -0.39907       -4.14133
C          8.67648       -0.30800       -5.53341
C         10.19777       -0.13223       -5.49990
C         10.82971       -0.07057       -6.89362
C         12.30651        0.32555       -6.84298
N         12.94619        0.32448       -8.17424
C         13.59517       -0.91296       -8.55254
C         15.03943       -1.00244       -8.04185
N         15.78858        0.22954       -8.52155
C         15.13672        1.57349       -8.12993
C         13.67181        1.49147       -8.66188
C         12.89293        2.80519       -8.51565
C         11.62653        2.83257       -9.38389
C         10.71788        3.99593       -8.98144
S          9.27376        4.01372      -10.07816
C          8.29967        5.31056       -9.37692
S          8.73221        6.21728       -8.07620
N          7.10182        5.48475      -10.08077
C          6.57065        4.69138      -11.10714
C          5.41035        5.30472      -11.48319
N          5.19535        6.45884      -10.73793
C          6.20314        6.54578       -9.91423
C         15.36766        1.80456       -6.63198
C         15.34506        3.29445       -6.27083
C         15.61292        3.67722       -4.81323
C         14.44671        3.40035       -3.79601
Br        14.12214        1.50443       -3.37089
F         14.68192        4.04567       -2.64687
F         13.30221        3.90156       -4.33643
Br        17.29586        2.91956       -4.13959
F         15.74629        5.04930       -4.80076
H         -0.31214       -0.05601        1.07187
H         -0.42803       -0.80884       -0.53022
H         -0.16545        0.93938       -0.38930
H          1.84105       -1.22466        0.52775
H          2.09867        0.51136        0.66246
H          1.97417        0.71940       -1.84966
H          1.74392       -1.02226       -1.97798
H          3.99005       -1.39712       -0.89046
H          4.20858        0.34478       -0.74575
H          4.06439        0.55001       -3.26967
H          3.93168       -1.20258       -3.38922
H          6.18881       -1.44223       -2.28138
H          6.30065        0.31018       -2.14111
H          6.14872        0.48661       -4.67569
H          6.16386       -1.27238       -4.77416
H          8.42144       -1.29957       -3.62544
H          8.38188        0.45942       -3.53380
H          8.23089        0.54073       -6.08125
H          8.42040       -1.21047       -6.11540
H         10.65508       -0.95478       -4.92232
H         10.43908        0.79346       -4.94731
H         10.29267        0.66231       -7.51684
H         10.71841       -1.04228       -7.40375
H         12.84925       -0.34347       -6.14691
H         12.38588        1.32695       -6.39963
H         13.59484       -1.00876       -9.65490
H         13.03083       -1.77231       -8.16673
H         15.57873       -1.87760       -8.42834
H         15.09416       -1.00373       -6.94624
H         15.84633        0.19262       -9.55007
H         16.75394        0.21189       -8.16807
H         15.69802        2.31796       -8.71933
H         13.78429        1.32771       -9.75596
H         13.55042        3.64290       -8.79654
H         12.61605        2.97265       -7.46407
H         11.08669        1.88090       -9.27718
H         11.91214        2.91672      -10.44477
H         11.22472        4.96837       -9.06208
H         10.36099        3.89466       -7.94612
H          7.05028        3.77980      -11.44154
H          4.70625        4.98728      -12.24592
H          6.38797        7.32198       -9.17932
H         16.35714        1.41085       -6.34143
H         14.63145        1.25216       -6.03748
H         14.38102        3.75431       -6.52420
H         16.11357        3.83013       -6.84751
