37

N          3.26566        2.70179       -3.13905
C          2.59560        1.41171       -3.36055
C          3.24527        0.63716       -4.51520
C          4.78217        0.57398       -4.46937
C          5.30314        0.14895       -3.08650
C          6.75828       -0.12214       -3.03618
N          7.74416        0.39147       -3.79953
C          8.94389       -0.15232       -3.38978
N          8.75112       -0.98810       -2.39129
N          7.39271       -0.95278       -2.18766
N          6.75178       -1.71234       -1.21969
C         10.26057        0.17989       -4.00607
C         10.32367       -0.03725       -5.54739
C         10.58495        1.23347       -6.36108
C          9.44738        2.24179       -6.36345
O          8.36774        2.08816       -5.81223
O          9.65890        3.38285       -7.04293
H          2.85871        3.17660       -2.33253
H          3.11377        3.32392       -3.93564
H          1.51240        1.49367       -3.56554
H          2.68365        0.83218       -2.42721
H          2.95540        1.09371       -5.47467
H          2.82828       -0.38227       -4.52493
H          5.19407        1.56466       -4.71236
H          5.13255       -0.12834       -5.24152
H          4.79524       -0.74937       -2.70442
H          5.08003        0.96363       -2.37242
H          7.69574        1.07129       -4.58939
H          7.07442       -2.67949       -1.30901
H          7.02625       -1.36750       -0.29530
H         11.01228       -0.43072       -3.49114
H         10.49478        1.22920       -3.76119
H          9.39881       -0.50958       -5.90768
H         11.13019       -0.74809       -5.76732
H         10.77994        0.96545       -7.41306
H         11.49833        1.74333       -6.00962
H         10.54555        3.39176       -7.44845
