49

C          4.96467        0.17567        5.28838
C          5.29688       -1.27188        5.65341
C          6.68048       -1.72404        5.22020
O          6.74437       -1.75178        3.77530
C          7.98848       -2.24004        3.31596
C          7.90519       -2.45628        1.84047
N          8.08725       -3.62199        1.27070
N          7.93366       -3.38221       -0.07166
C          7.66227       -2.08300       -0.31560
N          7.52018       -1.50146       -1.51928
N          7.64046       -1.46703        0.89492
C          7.40221       -0.02465        1.10564
C          5.93414        0.37672        0.94037
C          5.75468        1.89730        1.05318
C          4.30302        2.35580        0.84437
C          3.35046        1.91664        1.96109
C          1.89902        2.27345        1.65330
O          1.01633        1.84249        2.71672
C          0.67756        0.51793        2.70249
O          1.07276       -0.27038        1.86051
C         -0.21521        0.20334        3.84469
C         -0.66289       -1.04199        4.04046
I          8.14839       -4.86843       -1.45734
H          3.96398        0.44963        5.64691
H          4.97800        0.32821        4.20115
H          5.68372        0.87555        5.73962
H          4.55155       -1.95888        5.22355
H          5.24563       -1.40428        6.74540
H          6.89700       -2.73814        5.60201
H          7.46104       -1.03884        5.60415
H          8.24881       -3.21571        3.76481
H          8.81547       -1.53620        3.55035
H          7.47806       -2.10206       -2.33785
H          7.04734       -0.60737       -1.58732
H          8.05503        0.51665        0.40210
H          7.75183        0.20264        2.11989
H          5.34256       -0.15345        1.69974
H          5.54992        0.04138       -0.03939
H          6.39867        2.39307        0.30770
H          6.11013        2.23618        2.04090
H          3.93971        1.97114       -0.12465
H          4.29188        3.45361        0.75903
H          3.64552        2.38747        2.91240
H          3.39957        0.82757        2.10298
H          1.57622        1.80765        0.71070
H          1.75157        3.35997        1.59399
H         -0.48324        1.02936        4.50471
H         -0.37915       -1.84365        3.35648
H         -1.32023       -1.28670        4.87407
