79

C          0.86283       -0.31322       -0.00043
C          2.38980       -0.32491       -0.10826
C          2.93049        0.62119       -1.18661
C          4.45853        0.61917       -1.29580
C          5.00543        1.59755       -2.34083
C          6.53491        1.59985       -2.43064
C          7.10062        2.63813       -3.40494
C          8.63151        2.63951       -3.46518
C          9.21679        3.73549       -4.36007
C         10.74528        3.67918       -4.44650
C         11.33985        4.75394       -5.36464
C         12.85158        4.65220       -5.46468
O         13.31022        5.48763       -6.55044
C         14.67672        5.32468       -6.81396
C         15.09048        6.03003       -8.09145
O         14.86621        7.39592       -8.04489
C         15.19572        7.88093       -9.34813
C         14.49217        6.89332      -10.30145
N         14.40165        5.60380       -9.45225
C         12.98429        5.05556       -9.43500
C         12.89449        3.58895       -9.04108
C         11.42039        3.16350       -8.92164
C         11.23198        1.91704       -8.05280
C          9.76102        1.61958       -7.75129
N          9.65015        0.60959       -6.69411
C         15.15193        6.62571      -11.62804
C         16.49136        6.21544      -11.71654
C         17.03115        5.95977      -12.97966
N         16.33970        6.09056      -14.12069
C         15.06434        6.48907      -14.02996
C         14.42637        6.76355      -12.81533
H          0.50839       -0.99877        0.78148
H          0.39244       -0.61803       -0.94722
H          0.48772        0.69167        0.24485
H          2.73749       -1.35084       -0.31775
H          2.83026       -0.05139        0.86561
H          2.58166        1.64781       -0.97589
H          2.49203        0.34976       -2.16336
H          4.80725       -0.40197       -1.53126
H          4.89305        0.86460       -0.31058
H          4.65418        2.61674       -2.10119
H          4.57795        1.35705       -3.33038
H          6.88735        0.59377       -2.71935
H          6.95485        1.78648       -1.42653
H          6.74428        3.64140       -3.11185
H          6.69171        2.45888       -4.41589
H          8.98919        1.65760       -3.82030
H          9.03267        2.75672       -2.44322
H          8.90040        4.72591       -3.98945
H          8.79272        3.64412       -5.37608
H         11.04015        2.67983       -4.80955
H         11.17128        3.77876       -3.43347
H         11.06009        5.76023       -5.01588
H         10.91676        4.64468       -6.37617
H         13.15742        3.60661       -5.66783
H         13.34332        4.96605       -4.52607
H         14.96103        4.25548       -6.89461
H         15.31407        5.76125       -6.01788
H         16.15797        5.79627       -8.28342
H         16.28917        7.88797       -9.49696
H         14.80665        8.89942       -9.44848
H         13.45392        7.21246      -10.44916
H         15.00319        4.89668       -9.89687
H         12.60734        5.20246      -10.45779
H         12.41881        5.69256       -8.74529
H         13.38074        3.42623       -8.07078
H         13.42084        2.95850       -9.77711
H         10.98856        3.01186       -9.92386
H         10.85196        3.99200       -8.46655
H         11.74746        2.05841       -7.08943
H         11.70507        1.04260       -8.53157
H          9.23525        1.35758       -8.69178
H          9.28536        2.53942       -7.37422
H          9.93532       -0.30936       -7.03697
H          8.68043        0.51389       -6.39193
H         17.12543        6.10467      -10.83359
H         18.07188        5.64091      -13.07930
H         14.52179        6.59161      -14.97323
H         13.38350        7.08605      -12.80306
