64

C         11.00431        7.41873       -0.85851
C         10.47777        5.99382       -0.66701
C         10.96523        5.01890       -1.74451
C         10.45667        3.58514       -1.56081
C         10.95488        2.62140       -2.64228
C         10.46463        1.17987       -2.46861
C         10.97656        0.23608       -3.56137
C         10.50883       -1.21465       -3.40675
C         11.03336       -2.13466       -4.51491
C         10.58927       -3.59485       -4.36268
C         11.00746       -4.52011       -5.51506
C         12.53033       -4.68421       -5.62101
C         12.97479       -5.57366       -6.72900
N         14.31340       -5.91511       -6.93447
C         14.37369       -6.72449       -8.02436
N         15.45226       -7.34169       -8.51767
C         16.82869       -7.03792       -8.10528
C         17.80170       -7.90097       -8.84945
C         18.75656       -8.67871       -8.32979
Br        19.05397       -8.88732       -6.47876
Br        17.65359       -7.81434      -10.75563
N         13.10049       -6.82876       -8.46534
N         12.22841       -6.12633       -7.64714
C         12.63850       -7.58734       -9.59117
C         11.64500       -8.55056       -9.39804
C         11.20532       -9.28955      -10.49621
C         11.76070       -9.07397      -11.76152
C         12.74919       -8.10298      -11.94017
C         13.18901       -7.34279      -10.85435
H         10.63986        8.09351       -0.07195
H         10.68679        7.83514       -1.82626
H         12.10413        7.44439       -0.83456
H          9.37468        6.00529       -0.66013
H         10.78105        5.61867        0.32518
H         12.06983        5.01443       -1.75675
H         10.65625        5.39095       -2.73761
H          9.35252        3.58624       -1.55174
H         10.76564        3.21236       -0.56828
H         12.05936        2.62954       -2.65456
H         10.64131        2.99415       -3.63347
H          9.36077        1.16569       -2.45928
H         10.77969        0.80197       -1.48007
H         12.08100        0.26187       -3.57281
H         10.65724        0.61685       -4.54760
H          9.40577       -1.24843       -3.39706
H         10.83175       -1.60282       -2.42491
H         12.13600       -2.06708       -4.52810
H         10.69507       -1.75342       -5.49480
H          9.49120       -3.62900       -4.28621
H         10.96698       -4.00019       -3.40746
H         10.61875       -4.12964       -6.46838
H         10.55110       -5.51194       -5.37907
H         12.93510       -5.08176       -4.67297
H         13.01378       -3.70213       -5.76409
H         15.09981       -5.62560       -6.36144
H         15.33506       -7.83492       -9.40343
H         16.95198       -7.24089       -7.02923
H         17.05760       -5.97286       -8.29615
H         19.45264       -9.24772       -8.94215
H         11.22253       -8.70631       -8.40575
H         10.42735      -10.04088      -10.36074
H         11.41449       -9.65859      -12.61383
H         13.16558       -7.91787      -12.93012
H         13.92356       -6.54821      -10.99597
