72

C          0.82960       -2.57022       -0.52705
C          1.69628       -1.61020        0.29252
C          2.24638       -0.47113       -0.55039
O          3.06225        0.36611        0.29741
C          3.58323        1.48598       -0.36621
N          4.49316        2.16143        0.57730
C          5.84289        1.65385        0.71645
C          6.98981        2.73426        0.47638
C          7.26799        3.90897        1.49882
C          7.80682        3.67122        2.97037
C          9.15562        2.90094        3.26894
C         10.54200        3.39278        2.68726
C         11.11948        4.82815        3.02672
C         11.33103        5.23313        4.53379
F         11.99474        4.27725        5.20132
F         12.04362        6.36994        4.56791
F         10.14863        5.45496        5.14206
F         12.33427        4.86899        2.42843
F         10.32215        5.76768        2.45210
F         11.44541        2.47646        3.11074
F         10.46825        3.32840        1.33145
F          9.25973        2.87679        4.62301
F          8.98944        1.62488        2.83597
F          7.89502        4.91315        3.51371
F          6.84490        2.99239        3.65883
F          8.12334        4.74907        0.87917
F          6.07840        4.57801        1.66896
F          8.14302        2.06001        0.28732
F          6.65653        3.35646       -0.69301
F          6.07203        1.02871        1.91815
F          6.04641        0.73296       -0.24855
C          3.86599        2.87952        1.59622
N          3.05326        3.88247        1.28603
C          3.11189        4.74515        0.10190
C          3.42824        6.19247        0.50579
C          2.37448        6.85370        1.42912
S          3.10426        7.74922        2.83002
C          3.22749        6.52878        4.12221
S          2.30541        5.10286        4.13840
N          4.03067        6.88649        5.13865
C          4.88062        8.08932        5.16928
C          6.34233        7.66722        5.36564
O          6.51154        6.87541        6.53334
C          5.69559        5.70918        6.48938
C          4.21401        6.06358        6.34573
N          4.03353        2.55484        2.87508
H          0.44302       -3.37775        0.10695
H          1.40056       -3.03506       -1.34333
H         -0.03506       -2.05732       -0.97232
H          2.54078       -2.15107        0.74636
H          1.11133       -1.18287        1.12147
H          1.42456        0.13139       -0.98284
H          2.86350       -0.85357       -1.38509
H          2.78966        2.20275       -0.63871
H          4.14417        1.22057       -1.27495
H          2.56495        4.29225        2.11423
H          2.14915        4.68295       -0.42829
H          3.89452        4.37025       -0.56930
H          3.53096        6.78052       -0.41713
H          4.41078        6.21243        0.99409
H          1.64602        6.14775        1.85545
H          1.80194        7.62594        0.89932
H          4.54772        8.72440        6.00478
H          4.77727        8.65619        4.23814
H          6.97172        8.55727        5.49486
H          6.68697        7.11540        4.46985
H          5.86287        5.17472        7.43345
H          6.00390        5.05534        5.65054
H          3.87988        6.65341        7.21377
H          3.59118        5.16730        6.25987
H          4.43727        1.66263        3.13182
H          3.69484        3.20600        3.59695
