38

C          2.16359       -1.03825        1.60807
C          3.42092       -1.90445        1.72051
C          4.08338       -2.16121        0.35791
C          5.31430       -3.04121        0.49498
O          5.87027       -3.37833       -0.83452
C          6.82996       -2.59393       -1.30899
O          7.35861       -1.64502       -0.76817
C          7.18513       -3.04493       -2.74388
N          8.58111       -2.70721       -3.05832
C          8.99968       -1.42895       -3.08333
C         10.34012       -1.16271       -3.33199
C         11.21065       -2.23149       -3.51938
C         10.68424       -3.55664       -3.43156
N          9.38118       -3.75721       -3.22315
C         11.49795       -4.81443       -3.54899
C         12.26170       -5.19480       -2.25453
C         11.37895       -5.41305       -1.03917
F         10.81264       -4.18301       -0.62988
I         13.21239       -1.85246       -3.94693
H          1.71147       -0.87166        2.59443
H          1.40462       -1.51470        0.97093
H          2.39216       -0.05297        1.17675
H          3.16383       -2.86891        2.18866
H          4.14585       -1.41972        2.39475
H          4.36723       -1.20126       -0.10332
H          3.36476       -2.64906       -0.32002
H          5.07357       -4.02193        0.92314
H          6.10800       -2.56324        1.08315
H          6.51727       -2.52615       -3.44686
H          7.07648       -4.12518       -2.86861
H          8.25426       -0.65687       -2.90976
H         10.67692       -0.12838       -3.37670
H         12.22273       -4.69780       -4.36823
H         10.80953       -5.62536       -3.82161
H         13.02195       -4.43768       -2.01196
H         12.80667       -6.12992       -2.45569
H         11.96377       -5.79715       -0.19132
H         10.54253       -6.09964       -1.24392
