53

C          2.30241       -0.86848        1.00757
C          3.75603       -0.79527        0.52885
C          3.84208       -0.33519       -0.91403
O          5.26201       -0.26262       -1.27960
C          5.55245        0.32677       -2.44517
O          4.72981        0.82085       -3.20046
C          7.05363        0.32417       -2.69732
C          7.66085        1.71808       -3.00826
O          7.84068        2.01845       -4.38393
C          6.64650        2.26438       -5.07872
N          5.87226        3.31439       -4.38948
C          5.99663        3.52350       -3.07078
N          5.23966        4.45617       -2.43710
C          4.54474        5.50336       -3.21236
C          3.06785        5.17684       -3.47859
C          2.38971        6.32961       -4.22316
S          0.65866        5.89071       -4.54124
C         -0.07986        7.48396       -4.81071
S          0.66906        8.92909       -4.60352
N         -1.41762        7.35530       -5.19792
C         -2.08998        6.20107       -5.62982
N         -3.33941        6.44458       -5.91019
C         -3.52374        7.80091       -5.65686
C         -2.36571        8.38365       -5.23057
C          5.07254        4.38570       -1.03045
C          4.56051        5.34461       -0.25254
N          6.91097        2.81662       -2.37472
H          2.25692       -1.20403        2.05091
H          1.71338       -1.57572        0.40687
H          1.80725        0.11179        0.95252
H          4.23840       -1.77969        0.62393
H          4.32927       -0.10000        1.16198
H          3.39776        0.65989       -1.06503
H          3.35086       -1.03416       -1.60710
H          7.27107       -0.33997       -3.54780
H          7.56626       -0.09422       -1.82284
H          8.67677        1.75028       -2.59581
H          6.01138        1.36546       -5.15955
H          6.93448        2.62960       -6.07231
H          4.98412        3.56020       -4.81682
H          5.10432        5.65695       -4.14494
H          4.63891        6.44110       -2.64855
H          2.55532        4.99503       -2.52272
H          2.98597        4.23807       -4.05258
H          2.88363        6.55002       -5.18134
H          2.38152        7.25958       -3.63365
H         -1.58331        5.24743       -5.74393
H         -4.49083        8.27167       -5.80278
H         -2.10207        9.39231       -4.94090
H          5.34630        3.41705       -0.61166
H          4.24114        6.32168       -0.61014
H          4.44208        5.14713        0.81004
H          7.30358        3.24872       -1.54451
