61

O          4.96353        9.04402        1.19646
C          4.17919        8.05164        1.85995
C          4.23245        6.78338        1.02901
O          5.58567        6.31846        0.81780
C          6.20457        5.61388        1.87428
O          6.71568        4.36618        1.41280
C          7.44842        4.41827        0.21579
N          8.72033        5.16215        0.31123
C          9.98632        4.65733        0.63589
C         10.23798        3.26883        1.12280
C         11.72066        2.86055        1.11699
C         12.24790        2.59823       -0.29681
S         13.97126        2.04656       -0.33576
C         13.80526        0.27151       -0.05419
S         12.32948       -0.46495        0.20717
N         14.99043       -0.37889       -0.07360
C         15.05754       -1.82188        0.21966
C         14.90049       -2.69287       -1.02593
C         16.27476        0.26957       -0.38383
C         17.04029        0.73055        0.85812
N         10.89581        5.58527        0.48921
N         10.21246        6.71735        0.09191
C          8.89303        6.47704       -0.03197
N          7.92560        7.31409       -0.42035
C         10.94810        7.96048       -0.12297
C         11.70291        8.02675       -1.45555
C         10.80621        8.03818       -2.68155
F         10.20645        6.83100       -2.88566
F          9.79143        8.95418       -2.54725
F         11.48873        8.34980       -3.79562
H          4.80409        9.89992        1.62271
H          3.11940        8.35143        1.94393
H          4.55673        7.86318        2.88282
H          3.83984        6.97453        0.02176
H          3.63468        5.98703        1.50133
H          5.49266        5.35974        2.67198
H          7.03010        6.22520        2.28415
H          6.87334        4.87473       -0.60278
H          7.69026        3.38078       -0.03654
H          9.65592        2.55418        0.51683
H          9.82817        3.19380        2.14461
H         11.80847        1.92915        1.69167
H         12.32799        3.62645        1.61857
H         12.24338        3.50844       -0.91416
H         11.65418        1.81232       -0.78998
H         14.26694       -2.04719        0.94671
H         16.03056       -2.00150        0.70005
H         13.91387       -2.53780       -1.47935
H         14.98990       -3.75189       -0.74827
H         15.67358       -2.47548       -1.77577
H         16.08866        1.11290       -1.06410
H         16.86897       -0.46100       -0.95231
H         16.46930        1.48365        1.41607
H         17.99928        1.17592        0.56008
H         17.25448       -0.11035        1.53090
H          8.16645        8.21915       -0.80654
H          6.95307        7.15517       -0.10950
H         11.66791        8.03997        0.70100
H         10.23877        8.79364       -0.02726
H         12.40202        7.18530       -1.55133
H         12.29069        8.95480       -1.47101
