72

C          1.54991      -12.20167       -6.19958
C          3.05864      -11.96476       -6.10002
C          3.45050      -10.48403       -6.16137
C          4.95960      -10.24591       -6.05190
C          5.36240       -8.76812       -6.09730
C          6.87253       -8.54876       -5.96415
C          7.29849       -7.07687       -5.98085
C          8.81058       -6.89112       -5.82466
C          9.28238       -5.43320       -5.83941
C         10.80219       -5.31418       -5.69632
C         11.35300       -3.89014       -5.83584
C         12.87262       -3.83147       -5.86394
O         13.31863       -4.51959       -7.05079
C         14.71340       -4.70167       -7.12943
C         15.07907       -5.47989       -8.39480
N         14.49767       -6.89443       -8.31799
C         13.00986       -7.06254       -8.66332
C         12.63242       -8.54108       -8.49413
C         13.20345       -9.49753       -9.52798
F         14.62516       -9.36300       -9.56137
C         12.76218       -6.45478      -10.04048
C         13.22959       -4.99724      -10.10886
C         14.72377       -4.86131       -9.76732
C         15.20533       -3.40633       -9.88150
C         16.72360       -3.21127       -9.79210
N         17.04388       -1.79108       -9.91216
H          1.30649      -13.27195       -6.15396
H          1.14438      -11.80902       -7.14398
H          1.01235      -11.70418       -5.37862
H          3.57140      -12.50861       -6.91184
H          3.43854      -12.40009       -5.16008
H          2.93540       -9.93781       -5.35150
H          3.07672      -10.04620       -7.10388
H          5.47345      -10.78876       -6.86548
H          5.33000      -10.69304       -5.11240
H          4.84335       -8.22364       -5.28930
H          5.00658       -8.31813       -7.04072
H          7.38995       -9.08620       -6.77984
H          7.22443       -9.01591       -5.02738
H          6.77987       -6.53651       -5.17037
H          6.96339       -6.60484       -6.92097
H          9.32543       -7.44083       -6.63622
H          9.13920       -7.37024       -4.88565
H          8.78615       -4.87211       -5.02985
H          8.96376       -4.95199       -6.78065
H         11.26768       -5.95578       -6.46391
H         11.11648       -5.73416       -4.72496
H         11.00330       -3.26328       -5.00049
H         10.96727       -3.41998       -6.75546
H         13.30745       -4.32504       -4.97340
H         13.23708       -2.78933       -5.88926
H         15.09044       -5.25417       -6.24036
H         15.25715       -3.73840       -7.14808
H         16.16769       -5.63737       -8.34806
H         14.64884       -7.25602       -7.36652
H         15.01750       -7.53276       -8.94417
H         12.48834       -6.46649       -7.90404
H         11.53383       -8.60825       -8.54040
H         12.90538       -8.88166       -7.48124
H         12.84953       -9.29207      -10.54727
H         12.98971      -10.54347       -9.27342
H         11.68480       -6.52798      -10.24831
H         13.27252       -7.04567      -10.81976
H         12.63182       -4.37540       -9.42801
H         13.06897       -4.61314      -11.12574
H         15.28545       -5.45465      -10.51571
H         14.71060       -2.77253       -9.12927
H         14.86361       -3.02799      -10.85879
H         17.21345       -3.86324      -10.54692
H         17.10040       -3.54105       -8.80924
H         16.83963       -1.44720      -10.85168
H         18.03590       -1.62250       -9.74784
