45

C          0.97305        0.16147       -0.27880
C          2.49420       -0.00139       -0.23865
C          2.97555       -0.89930        0.90639
C          4.49936       -1.03622        0.97991
C          4.97405       -1.90539        2.15001
C          6.50404       -1.97515        2.26319
C          6.94659       -2.77881        3.47037
O          8.40195       -2.75568        3.53550
C          8.91778       -3.44422        4.63999
P         10.73358       -3.40906        4.40228
C         11.33841       -1.70546        4.27111
C         12.85835       -1.56405        4.05063
C         13.39319       -2.20768        2.76382
C         14.87117       -1.89150        2.52187
C         11.58256       -4.35366        5.68220
H          0.66043        0.81168       -1.10695
H          0.59455        0.60703        0.65325
H          0.46905       -0.80764       -0.40944
H          2.96844        0.99026       -0.14375
H          2.84807       -0.41415       -1.19847
H          2.51991       -1.89979        0.80256
H          2.60114       -0.49609        1.86406
H          4.95005       -0.03222        1.06910
H          4.87926       -1.45588        0.03231
H          4.56219       -2.92349        2.04265
H          4.55563       -1.50429        3.08933
H          6.91684       -0.95667        2.34456
H          6.93218       -2.42287        1.35216
H          6.61487       -3.83092        3.40306
H          6.54678       -2.34803        4.40623
H          8.60644       -4.50854        4.68760
H          8.67432       -2.97492        5.61611
H         10.94981       -4.06630        3.17196
H         11.01667       -1.20496        5.19905
H         10.75920       -1.25851        3.44729
H         13.40415       -1.95125        4.92631
H         13.06639       -0.48299        4.03023
H         12.79305       -1.86113        1.90605
H         13.26557       -3.30480        2.80058
H         15.03419       -0.80926        2.42017
H         15.23014       -2.36955        1.60172
H         15.50063       -2.24801        3.34983
H         11.45413       -3.86101        6.65449
H         12.65172       -4.40657        5.44140
H         11.17243       -5.37044        5.72617
