60

N          1.18798       -0.42195        0.52133
C          2.62670       -0.23933        0.67602
C          3.27122       -0.28490       -0.72659
C          4.79262       -0.22595       -0.66130
C          5.34028        1.02057        0.07015
O          6.76259        0.94928        0.22755
C          7.46377        0.84293       -0.99603
C          7.01951       -0.36970       -1.80295
N          5.51676       -0.25429       -2.05749
C          5.02803       -1.10058       -3.25691
C          5.28636       -2.67823       -3.31805
C          4.67362       -3.68851       -2.25768
C          3.13215       -4.06893       -2.34218
C          2.62258       -5.22216       -3.31237
C          3.07214       -6.74055       -3.18194
C          2.97952       -7.51064       -1.80542
C          1.56774       -7.70305       -1.13494
F          0.70916       -8.28146       -1.98661
F          1.71906       -8.48808       -0.05763
F          1.05827       -6.52067       -0.73430
F          3.47373       -8.74747       -2.04674
F          3.79293       -6.88486       -0.90873
F          2.31099       -7.40286       -4.08627
F          4.36821       -6.82638       -3.57747
F          1.27236       -5.18893       -3.19016
F          2.94850       -4.85193       -4.57728
F          2.73778       -4.35373       -1.08227
F          2.46370       -2.94570       -2.74145
F          5.41795       -4.80526       -2.32142
F          4.88349       -3.11896       -1.02885
F          4.89438       -3.03394       -4.55630
F          6.63659       -2.82723       -3.22850
F          3.74619       -0.79571       -3.45991
F          5.74249       -0.59530       -4.29312
C          4.87404        2.38556       -0.46629
C          4.64357        3.35727        0.69689
O          4.28118        2.99655        1.79916
O          4.85330        4.61996        0.31184
C          4.58898        5.65768        1.32307
C          4.91038        6.99547        0.69765
H          0.68857       -0.10485        1.35067
H          0.94358       -1.40254        0.38137
H          3.12114       -0.98820        1.32875
H          2.79188        0.74159        1.14359
H          2.84681        0.52960       -1.33059
H          2.95049       -1.21831       -1.20096
H          5.19101       -1.10538       -0.14410
H          4.95565        0.94183        1.09836
H          8.52626        0.72705       -0.74435
H          7.37114        1.76046       -1.61086
H          7.17472       -1.30351       -1.25146
H          7.53445       -0.41124       -2.76852
H          5.36120        0.69307       -2.44880
H          3.90393        2.30753       -0.98300
H          5.57793        2.83505       -1.17952
H          5.21360        5.43759        2.19949
H          3.53532        5.57209        1.62281
H          5.96386        7.05314        0.39420
H          4.72597        7.79055        1.43268
H          4.27900        7.19137       -0.17878
