65

C          1.30648        0.29767        1.16887
C          2.59847        0.22214        0.35287
C          3.25870       -1.16191        0.39441
C          4.53250       -1.23448       -0.45877
C          5.16958       -2.60822       -0.41265
O          6.34196       -2.58110       -1.31404
C          6.95520       -3.72992       -1.55010
O          6.64878       -4.81292       -1.06375
C          8.11524       -3.52092       -2.52524
C          8.73838       -4.76154       -3.06438
N          8.43405       -5.93892       -2.63691
C          9.05760       -7.07480       -3.36705
C         10.03510       -6.32439       -4.32761
C          9.74260       -4.81484       -4.16228
C          7.95466       -7.86562       -4.09686
C          7.08684       -7.09492       -5.09751
O          7.18423       -5.87198       -5.20510
C          6.11346       -7.86524       -5.91595
C          5.24451       -7.14221       -6.75716
C          4.31749       -7.80801       -7.55169
C          4.24648       -9.20628       -7.52096
C          5.10357       -9.93510       -6.69029
C          6.03161       -9.27096       -5.88955
C          9.77023       -7.96130       -2.29686
C         10.38773       -9.25055       -2.80515
C          9.56915      -10.39570       -2.84840
C         10.03775      -11.61900       -3.31872
C         11.36287      -11.72121       -3.74737
C         12.19694      -10.60920       -3.66828
C         11.74205       -9.36513       -3.19657
C         12.74969       -8.24175       -3.10600
H          0.86778        1.30344        1.12706
H          1.48460        0.05763        2.22744
H          0.55250       -0.40857        0.79075
H          3.31504        0.97486        0.72223
H          2.38995        0.49147       -0.69630
H          2.53683       -1.92086        0.04584
H          3.49389       -1.42252        1.44084
H          5.26040       -0.48284       -0.11433
H          4.29143       -0.98840       -1.50536
H          4.49551       -3.40042       -0.76796
H          5.52833       -2.87960        0.59076
H          8.89195       -2.91256       -2.02941
H          7.77765       -2.90181       -3.37155
H          7.70234       -6.00508       -1.89887
H          9.89331       -6.64377       -5.36458
H         11.07005       -6.54493       -4.05433
H          9.30275       -4.35903       -5.06149
H         10.62933       -4.21594       -3.90086
H          7.28344       -8.34124       -3.36146
H          8.44933       -8.70368       -4.61039
H          5.31763       -6.05483       -6.76938
H          3.64666       -7.24209       -8.19877
H          3.52247       -9.72902       -8.14696
H          5.04947      -11.02357       -6.66951
H          6.69465       -9.85915       -5.25399
H          9.02160       -8.21759       -1.52999
H         10.52026       -7.32999       -1.79868
H          8.54355      -10.32861       -2.47818
H          9.38053      -12.48897       -3.33127
H         11.75299      -12.67089       -4.11450
H         13.24367      -10.70424       -3.96476
H         13.73991       -8.64310       -2.85546
H         12.49939       -7.49634       -2.34004
H         12.86110       -7.71286       -4.06561
