105

C          0.60852        1.22734       -0.23140
C          2.13691        1.16404       -0.25441
C          2.69817        0.55972       -1.54496
C          4.22743        0.49834       -1.57705
C          4.79427       -0.10239       -2.86615
C          6.32407       -0.15894       -2.89034
C          6.89702       -0.75636       -4.17785
C          8.42676       -0.81257       -4.19856
C          8.99754       -1.41647       -5.48400
C         10.52683       -1.48012       -5.50633
C         11.09080       -2.09848       -6.78795
C         12.61925       -2.18203       -6.80765
C         13.17621       -2.79848       -8.09348
C         14.70576       -2.86565       -8.12720
C         15.25225       -3.46246       -9.42722
C         16.78301       -3.46961       -9.49549
C         17.30664       -4.06332      -10.81194
C         18.82656       -3.98798      -10.89239
N         19.40244       -4.66303      -12.12277
C         19.04796       -3.95157      -13.41559
C         19.52535       -4.74172      -14.63337
C         18.74023       -6.05047      -14.87171
C         17.21876       -5.89107      -14.92959
O         16.87961       -4.86366      -15.84036
Si        15.31122       -4.60569      -16.43206
C         15.53548       -3.31498      -17.76650
C         14.62305       -6.21406      -17.11678
C         14.22162       -3.97435      -15.03159
C         21.04518       -4.96870      -14.53731
C         21.45627       -5.63806      -13.20678
C         20.90500       -4.85309      -12.01244
C         22.96026       -5.83253      -13.09862
C         23.82412       -4.82703      -12.64979
C         25.20713       -5.02166      -12.58612
C         25.74247       -6.24609      -12.98190
C         24.90953       -7.26648      -13.44870
C         23.52478       -7.06358      -13.51485
O         22.63944       -8.00018      -13.97814
C         23.16279       -9.24665      -14.45119
H          0.23607        1.66704        0.70416
H          0.16786        0.22357       -0.32618
H          0.22327        1.83644       -1.06272
H          2.49611        0.57532        0.60662
H          2.55076        2.17798       -0.12104
H          2.33746        1.14655       -2.40832
H          2.28837       -0.45720       -1.67876
H          4.58672       -0.08887       -0.71354
H          4.63507        1.51568       -1.44086
H          4.43699        0.48440       -3.73076
H          4.38942       -1.12062       -3.00371
H          6.68044       -0.74680       -2.02610
H          6.72809        0.85926       -2.75024
H          6.54217       -0.16850       -5.04274
H          6.49359       -1.77472       -4.31855
H          8.78201       -1.39772       -3.33203
H          8.83144        0.20581       -4.06208
H          8.64379       -0.83088       -6.35085
H          8.58974       -2.43376       -5.61978
H         10.88054       -2.05944       -4.63539
H         10.93719       -0.46273       -5.38015
H         10.74655       -1.51189       -7.65795
H         10.66901       -3.11054       -6.91950
H         12.96439       -2.77061       -5.93969
H         13.04176       -1.17045       -6.67568
H         12.81986       -2.21447       -8.96023
H         12.76202       -3.81404       -8.22083
H         15.06760       -3.45879       -7.26961
H         15.11708       -1.85020       -7.99126
H         14.85515       -2.89087      -10.28415
H         14.87451       -4.49294       -9.54520
H         17.19201       -4.03920       -8.64422
H         17.15652       -2.43722       -9.38641
H         16.84522       -3.52147      -11.65147
H         16.98188       -5.11594      -10.89086
H         19.28629       -4.48859      -10.02823
H         19.18595       -2.94937      -10.91432
H         18.98021       -5.60205      -12.17662
H         19.53933       -2.96978      -13.35626
H         17.96352       -3.80168      -13.42598
H         19.31473       -4.08896      -15.49419
H         18.97460       -6.81818      -14.11251
H         19.09023       -6.46783      -15.82782
H         16.81236       -5.66215      -13.92037
H         16.77647       -6.85964      -15.22460
H         16.17970       -3.69024      -18.57347
H         15.99066       -2.39869      -17.36560
H         14.56778       -3.04055      -18.20987
H         15.27514       -6.63239      -17.89633
H         13.63751       -6.03540      -17.57128
H         14.48267       -6.97946      -16.34020
H         14.59891       -3.02377      -14.62720
H         14.14732       -4.69550      -14.20443
H         13.19852       -3.79309      -15.39225
H         21.57156       -4.00430      -14.62627
H         21.38940       -5.59351      -15.37267
H         21.00773       -6.64460      -13.17366
H         21.32259       -3.83905      -11.94210
H         21.09621       -5.37533      -11.06546
H         23.42257       -3.85760      -12.34685
H         25.85509       -4.22196      -12.22904
H         26.81838       -6.41683      -12.93399
H         25.34419       -8.21417      -13.76101
H         22.29532       -9.82289      -14.78945
H         23.67638       -9.79594      -13.64734
H         23.85328       -9.09309      -15.29462
