68

C          1.57308       -3.19612        0.82633
C          2.19500       -2.42400       -0.06896
C          2.91674       -1.14811        0.26241
C          4.43245       -1.22183       -0.01834
C          5.09354       -2.24009        0.89719
N          6.57701       -2.18115        0.63652
C          7.19011       -0.82758        0.95626
C          6.46340        0.38296        0.29889
N          5.02914        0.07014        0.22421
C          7.12077        0.65159       -1.17441
C          8.54908        1.28897       -1.22537
C          9.83204        0.68238       -0.59434
C         10.34226       -0.61031       -1.25503
C         10.93282        1.75509       -0.66550
C          7.14157       -0.69698       -1.98019
O          7.71236       -0.59995       -3.27590
C          6.23433        1.58937       -2.02306
C          6.54278        1.59123        1.39817
C          5.98828        2.97233        0.91625
C          4.55093        3.24467        0.39510
C          3.42287        3.04626        1.42061
C          4.52067        4.69042       -0.13128
C          5.74662        1.15128        2.68757
O          5.62959        2.18216        3.66004
C          7.97751        1.89071        1.88820
H          1.05515       -4.10816        0.53052
H          1.53598       -2.93057        1.88559
H          2.18740       -2.71785       -1.12443
H          2.75875       -0.86899        1.31573
H          2.51518       -0.32219       -0.34989
H          4.55017       -1.60285       -1.06162
H          4.74856       -3.26207        0.69831
H          4.93942       -1.98934        1.95573
H          6.74644       -2.40424       -0.35792
H          7.06647       -2.89753        1.18726
H          8.23621       -0.88103        0.64188
H          7.16023       -0.77172        2.04710
H          4.48783        0.83754       -0.15901
H          8.45149        2.32146       -0.86181
H          8.76756        1.39424       -2.29979
H          9.67382        0.47736        0.47656
H         10.39580       -0.50970       -2.34797
H          9.71646       -1.49117       -1.04390
H         11.34925       -0.85048       -0.88760
H         11.15897        2.01575       -1.71056
H         11.86256        1.39867       -0.20235
H         10.63352        2.67943       -0.15105
H          6.11836       -1.10345       -2.05283
H          7.78671       -1.43893       -1.48136
H          7.04265       -0.27663       -3.89758
H          6.20353        2.61034       -1.63610
H          5.20378        1.22106       -2.12296
H          6.65407        1.66279       -3.03488
H          6.69442        3.36155        0.16814
H          6.11496        3.63217        1.78882
H          4.33036        2.60759       -0.47968
H          3.63390        3.58355        2.35500
H          3.25487        1.99226        1.67791
H          2.47742        3.43246        1.01537
H          4.72476        5.40590        0.67942
H          3.53643        4.93580       -0.55208
H          5.27307        4.85538       -0.91638
H          6.21686        0.26902        3.15809
H          4.72695        0.86687        2.42085
H          6.43479        2.21344        4.19833
H          8.60842        2.34894        1.12355
H          8.50131        1.00772        2.28167
H          7.92161        2.61889        2.70870
