84

C          0.55465      -12.98346        6.40320
C          1.99052      -13.36340        6.03276
C          2.64737      -12.37145        5.06690
C          4.10660      -12.69950        4.73527
C          4.74304      -11.70853        3.75618
C          6.23135      -11.95793        3.49293
C          6.84689      -10.94748        2.52061
C          8.35233      -11.12317        2.29965
C          8.94238      -10.08279        1.34252
C         10.45988      -10.17948        1.16627
C         11.02648       -9.15135        0.18273
C         12.54060       -9.26417       -0.01019
C         13.08596       -8.35928       -1.12070
C         14.59240       -8.51053       -1.39715
C         15.06667       -9.94673       -1.67947
C         14.35712      -10.60063       -2.87368
C         14.49670      -12.14545       -2.97878
C         13.93757      -12.62847       -4.33898
N         14.83664      -12.13547       -5.46407
C         16.30733      -12.51002       -5.31954
C         16.77335      -12.14216       -3.90044
N         15.90001      -12.56427       -2.82995
I         16.53463      -14.59387       -5.84205
C         13.65622      -12.78244       -1.84983
C         13.69386      -14.31416       -1.77255
O         14.43640      -14.97075       -2.52697
N         12.90981      -14.91203       -0.83898
C         12.00218      -14.18416        0.06043
C         10.56380      -14.05987       -0.45109
C         12.97733      -16.38294       -0.72877
C         12.07280      -17.13278       -1.70947
H          0.10568      -13.71740        7.08654
H         -0.08697      -12.92467        5.51148
H          0.51812      -12.00255        6.89971
H          2.00396      -14.37130        5.58400
H          2.60022      -13.43374        6.94984
H          2.59535      -11.35622        5.49876
H          2.05915      -12.32968        4.13291
H          4.17065      -13.72068        4.31945
H          4.69529      -12.71721        5.66963
H          4.61595      -10.68331        4.14641
H          4.19183      -11.73481        2.79966
H          6.37213      -12.98151        3.10198
H          6.78001      -11.92277        4.45073
H          6.65924       -9.92643        2.89640
H          6.32489      -11.00879        1.54945
H          8.55139      -12.13938        1.91255
H          8.87309      -11.06453        3.27145
H          8.68774       -9.07283        1.70732
H          8.45354      -10.17572        0.35642
H         10.72579      -11.19447        0.81777
H         10.95192      -10.06182        2.14745
H         10.76911       -8.13374        0.52124
H         10.52747       -9.27572       -0.79542
H         12.77768      -10.31905       -0.23299
H         13.05853       -9.04052        0.93831
H         12.88477       -7.30696       -0.86505
H         12.51043       -8.54140       -2.04569
H         15.16024       -8.13548       -0.53121
H         14.86819       -7.85651       -2.24149
H         14.92165      -10.56115       -0.77958
H         16.15313       -9.94509       -1.84847
H         14.71907      -10.09621       -3.79130
H         13.27858      -10.38116       -2.84238
H         12.93474      -12.23683       -4.56039
H         13.94130      -13.72470       -4.38481
H         14.77464      -11.10513       -5.49653
H         14.48988      -12.49566       -6.36275
H         16.84588      -11.95504       -6.09695
H         16.88918      -11.04196       -3.87813
H         17.77636      -12.55905       -3.74569
H         15.91336      -13.58454       -2.71092
H         12.61790      -12.42964       -1.94068
H         14.03272      -12.37997       -0.89810
H         12.41863      -13.18904        0.26278
H         12.01313      -14.71540        1.02298
H         10.52356      -13.55323       -1.42591
H          9.96470      -13.47361        0.25882
H         10.08706      -15.04122       -0.56226
H         12.71600      -16.63365        0.30856
H         14.02306      -16.67177       -0.89445
H         11.01195      -16.89874       -1.55446
H         12.20022      -18.21509       -1.57164
H         12.33803      -16.89315       -2.74701
