94

C          8.46778        1.71705      -14.94538
C          7.88445        2.30454      -13.65809
C          8.67024        1.90906      -12.40340
C          8.09896        2.49183      -11.10745
C          8.89786        2.10079       -9.86071
C          8.36605        2.72728       -8.56849
C          9.20070        2.35493       -7.33871
C          8.78314        3.13278       -6.08753
C          9.59444        2.82493       -4.82000
N         11.06237        2.82681       -4.99638
C         11.73854        1.52608       -5.21559
C         13.23066        1.85214       -5.03051
N         13.18952        3.16980       -4.38207
C         11.95296        3.70359       -4.49208
N         11.69794        4.97318       -4.08537
C         12.66265        5.65769       -3.21341
C         13.88606        6.22991       -3.94611
O         14.61210        5.54228       -4.65449
O         14.04313        7.52668       -3.70373
C         15.14954        8.21729       -4.39603
C         14.68392        8.73428       -5.74839
C         15.78218        9.51944       -6.47691
C         15.33280       10.00760       -7.85871
C         16.41895       10.77661       -8.61677
C         15.98793       11.21847      -10.01848
C         17.07392       11.98298      -10.78342
C         16.64878       12.38651      -12.19675
C         10.70737        5.83059       -4.76550
C         11.32949        6.75974       -5.82078
P         10.06378        7.32243       -7.00547
O          9.27342        6.21170       -7.59839
O          9.18334        8.39509       -6.19354
C          7.72875        8.28155       -6.08750
C          7.33162        8.04517       -4.64380
O         10.98654        8.19314       -7.97251
C         10.40600        8.90473       -9.11851
C         10.44626        8.05477      -10.37371
H          7.88730        2.02174      -15.82669
H          8.47294        0.61728      -14.91604
H          9.50579        2.04734      -15.10134
H          6.83554        1.98188      -13.54629
H          7.85426        3.40491      -13.73424
H          9.72061        2.23245      -12.51615
H          8.70226        0.80778      -12.32681
H          7.05094        2.16604      -10.98847
H          8.06565        3.59291      -11.18488
H          9.95146        2.40429       -9.99805
H          8.91035        1.00060       -9.76406
H          7.31748        2.42249       -8.40927
H          8.35931        3.82511       -8.66956
H         10.25810        2.58024       -7.56383
H          9.13923        1.26676       -7.15765
H          7.73037        2.91781       -5.84103
H          8.82296        4.20499       -6.33479
H          9.34574        1.81575       -4.45505
H          9.34375        3.52020       -4.00628
H         11.50548        1.12546       -6.20860
H         11.37475        0.81242       -4.45887
H         13.75669        1.92793       -5.99365
H         13.74959        1.11525       -4.40617
H         13.97575        3.83282       -4.48784
H         13.02755        4.94589       -2.45827
H         12.12738        6.46238       -2.69561
H         15.98999        7.51728       -4.48615
H         15.41425        9.03033       -3.70958
H         13.79907        9.37553       -5.60595
H         14.37117        7.88400       -6.37504
H         16.67728        8.88411       -6.58791
H         16.09221       10.38224       -5.86322
H         14.43860       10.64569       -7.74796
H         15.01235        9.13930       -8.46115
H         17.32261       10.14738       -8.69593
H         16.71840       11.66166       -8.02889
H         15.08345       11.84815       -9.94355
H         15.68949       10.33012      -10.60357
H         17.98460       11.36269      -10.83537
H         17.35505       12.88271      -10.21069
H         16.40823       11.50453      -12.80889
H         17.44399       12.94047      -12.71351
H         15.75599       13.02912      -12.17853
H         10.18118        6.41288       -3.99609
H          9.97158        5.18623       -5.25078
H         12.07366        6.21637       -6.42195
H         11.81877        7.63517       -5.37526
H          7.39028        7.46864       -6.74460
H          7.32983        9.23385       -6.46336
H          7.68068        7.06434       -4.29135
H          6.23656        8.06194       -4.55261
H          7.74007        8.82464       -3.98717
H         11.02025        9.80914       -9.21583
H          9.38083        9.21550       -8.86468
H         11.47586        7.75468      -10.60850
H         10.06003        8.63820      -11.22138
H          9.83041        7.15351      -10.26360
