108

C         17.84356       11.06933       -3.64577
C         17.22168        9.72557       -3.25800
C         17.69930        8.55467       -4.12438
C         17.09656        7.20736       -3.71438
C         17.56285        6.02601       -4.57143
C         16.98515        4.68169       -4.11658
C         17.42641        3.49109       -4.97386
C         16.87511        2.14845       -4.48207
C         17.29872        0.95504       -5.34403
C         16.76870       -0.39093       -4.83792
C         17.19875       -1.57740       -5.70639
C         16.71105       -2.93653       -5.19295
C         17.16676       -4.10605       -6.07141
C         16.74158       -5.48396       -5.55327
C         17.24349       -6.63056       -6.43787
C         16.88449       -8.02410       -5.90603
C         17.34743       -9.18587       -6.80868
C         18.86834       -9.30256       -6.79022
N         19.49303      -10.28180       -7.78537
C         19.08214       -9.95216       -9.22108
C         19.38364       -8.53848       -9.70464
C         18.90814       -8.38108      -11.15617
C         19.22778       -6.98997      -11.73180
N         18.77271       -6.84502      -13.09879
C         19.44547       -7.30163      -14.21582
C         18.62761       -7.11724      -15.31399
C         17.41309       -6.53941      -14.84833
C         17.52576       -6.38859      -13.48011
C         21.00095      -10.20392       -7.59374
C         21.73315      -11.30821       -8.33942
O         21.29495      -12.58626       -7.91094
C         19.89712      -12.78460       -8.13218
C         19.06072      -11.70084       -7.43356
C         19.56501      -14.18425       -7.60430
C         19.93383      -14.36943       -6.13325
O         19.64663      -13.57602       -5.25032
O         20.59627      -15.51838       -5.95440
C         20.98871      -15.85754       -4.58133
C         19.91083      -16.66871       -3.87747
C         20.36399      -17.11936       -2.48144
C         19.30716      -17.95532       -1.75547
H         17.47758       11.88287       -3.00419
H         17.60546       11.33533       -4.68660
H         18.93987       11.04332       -3.55556
H         16.12243        9.79632       -3.32029
H         17.44849        9.50734       -2.20044
H         18.80105        8.49179       -4.07635
H         17.45609        8.76023       -5.18207
H         15.99490        7.27316       -3.75570
H         17.34483        7.00746       -2.65684
H         18.66588        5.97367       -4.55315
H         17.28756        6.20660       -5.62556
H         15.88236        4.74020       -4.11668
H         17.27534        4.50043       -3.06650
H         18.52971        3.44548       -4.99624
H         17.11087        3.65598       -6.01923
H         15.77258        2.19816       -4.44497
H         17.20327        1.98080       -3.44104
H         18.40143        0.91484       -5.39349
H         16.95711        1.11499       -6.38196
H         15.66641       -0.35524       -4.78577
H         17.11433       -0.55247       -3.80170
H         18.30101       -1.59311       -5.77688
H         16.83400       -1.42486       -6.73752
H         15.60929       -2.93336       -5.12646
H         17.07602       -3.09017       -4.16237
H         18.26782       -4.07978       -6.16098
H         16.77789       -3.96505       -7.09549
H         15.64188       -5.53237       -5.47837
H         17.12260       -5.62312       -4.52679
H         18.33841       -6.52531       -6.54150
H         16.82915       -6.51436       -7.45565
H         15.79206       -8.10024       -5.79769
H         17.29500       -8.15714       -4.89067
H         16.97443       -9.00187       -7.82801
H         16.89048      -10.12317       -6.46045
H         19.21340       -9.63848       -5.80269
H         19.34152       -8.33482       -6.99648
H         18.00643      -10.16024       -9.27373
H         19.58227      -10.68495       -9.86412
H         20.46429       -8.32959       -9.65517
H         18.88202       -7.78894       -9.07342
H         17.82124       -8.54820      -11.22013
H         19.38069       -9.14340      -11.79600
H         20.31331       -6.80531      -11.70053
H         18.75117       -6.20558      -11.12429
H         20.45318       -7.69771      -14.13566
H         18.88412       -7.35240      -16.34173
H         16.55959       -6.24517      -15.45037
H         16.83768       -5.97694      -12.74823
H         21.17387      -10.31373       -6.51509
H         21.33113       -9.20645       -7.90641
H         22.80170      -11.24139       -8.09568
H         21.63816      -11.20250       -9.43709
H         19.69784      -12.77878       -9.22181
H         19.17125      -11.81611       -6.34715
H         18.00194      -11.79936       -7.70202
H         20.09444      -14.92536       -8.21381
H         18.48619      -14.37778       -7.71166
H         21.21246      -14.92532       -4.04598
H         21.91072      -16.43805       -4.71240
H         19.66346      -17.54827       -4.49346
H         18.99407      -16.06344       -3.79340
H         20.61312      -16.23272       -1.87496
H         21.29679      -17.70076       -2.56964
H         18.37183      -17.39223       -1.62410
H         19.65626      -18.25656       -0.75890
H         19.06845      -18.87155       -2.31490
