90

C          7.11117       -7.85048       -8.13610
C          7.81332       -6.90831       -7.15490
C          8.28396       -5.59805       -7.79697
C          8.98650       -4.65296       -6.81707
C          9.45016       -3.33664       -7.44999
C         10.17623       -2.41003       -6.46916
C         10.62270       -1.08166       -7.08918
C         11.40575       -0.18766       -6.12160
C         11.82725        1.15358       -6.73086
C         12.67328        2.01709       -5.78768
C         13.05944        3.36906       -6.40133
C         13.99987        4.17324       -5.51994
O         14.25486        5.43776       -6.16006
C         15.15548        6.27590       -5.46056
C         15.14254        7.62221       -6.19646
C         15.91666        8.73671       -5.48629
C         15.01825        9.44145       -4.46914
N         13.81163        9.97811       -5.12560
C         13.15295        9.14444       -5.96151
N         11.91077        9.43301       -6.40540
C         10.81096        9.94967       -5.57368
C          9.65225        8.94021       -5.46849
C         10.10073        7.54246       -4.97893
C         10.86394        7.50048       -3.64962
C          8.54101        9.54993       -4.60207
N         13.73542        8.00816       -6.37167
C         13.60156       11.43513       -5.17788
C         14.17120       12.04989       -6.46679
O         13.86221       13.45228       -6.51837
C         12.60097       13.76079       -6.97771
O         11.79533       12.90666       -7.29136
C         12.38465       15.25298       -7.03029
C         11.02779       15.66977       -6.43790
C         10.90227       15.36177       -4.94372
H          6.78677       -8.77719       -7.64299
H          7.77665       -8.13188       -8.96593
H          6.21937       -7.37852       -8.57502
H          8.67997       -7.42266       -6.70584
H          7.13441       -6.67632       -6.31666
H          7.41751       -5.08150       -8.24702
H          8.96516       -5.82768       -8.63557
H          9.85613       -5.16961       -6.37377
H          8.30760       -4.43164       -5.97451
H          8.57871       -2.80940       -7.87688
H         10.11612       -3.55643       -8.30312
H         11.05703       -2.93482       -6.05903
H          9.51927       -2.20575       -5.60527
H          9.73723       -0.53562       -7.45986
H         11.24470       -1.28499       -7.97867
H         12.30377       -0.72890       -5.77561
H         10.79808       -0.00401       -5.21815
H         10.92675        1.71598       -7.03455
H         12.39568        0.97077       -7.65928
H         13.58676        1.46165       -5.51354
H         12.12315        2.18131       -4.84506
H         12.15118        3.96530       -6.59213
H         13.54346        3.21176       -7.37861
H         14.95630        3.63839       -5.37325
H         13.55872        4.35535       -4.52068
H         16.18247        5.86448       -5.46448
H         14.83717        6.40293       -4.40583
H         15.56461        7.45669       -7.20079
H         16.27667        9.47078       -6.22083
H         16.80328        8.31556       -4.99184
H         15.53965       10.28114       -3.99754
H         14.70828        8.75436       -3.66576
H         11.62686        8.93054       -7.24219
H         10.45827       10.90291       -5.99404
H         11.21500       10.14940       -4.57238
H          9.24104        8.80735       -6.48606
H         10.71042        7.05714       -5.76023
H          9.19873        6.91698       -4.89727
H         11.82986        8.02626       -3.69934
H         11.07875        6.46222       -3.36445
H         10.28954        7.94900       -2.82790
H          8.87752        9.73280       -3.57125
H          7.67425        8.87790       -4.55524
H          8.19597       10.50871       -5.01274
H         13.13923        7.22905       -6.65107
H         14.08240       11.86820       -4.29253
H         12.53488       11.67169       -5.11723
H         13.74427       11.54221       -7.34376
H         15.26676       11.99057       -6.49475
H         12.43191       15.53642       -8.09479
H         13.21833       15.75815       -6.52438
H         10.22432       15.16834       -6.99719
H         10.90271       16.74866       -6.60942
H         10.96321       14.28019       -4.74709
H          9.93844       15.70932       -4.54955
H         11.69573       15.85439       -4.36281
