42

C          1.67846        1.55618       -1.23238
C          2.34944        0.61642       -0.55632
C          3.27103       -0.34807       -1.23322
N          4.79371       -0.10131       -0.99114
C          5.15505        1.24998       -1.62137
O          5.15747        0.99263       -2.98531
C          5.94328       -0.19783       -3.12052
C          5.53099       -1.10591       -1.93267
C          6.68727       -1.89419       -1.33330
C          7.16291       -2.95918       -2.33199
C          8.35395       -3.74451       -1.74306
F          8.07752       -4.27466       -0.53122
F          8.68975       -4.76056       -2.57478
F          9.43331       -2.93380       -1.61057
O          6.06513       -3.80827       -2.60458
C          5.02536       -0.17492        0.52232
C          6.39520        0.01843        1.20890
C          7.09132        1.37182        1.00164
C          6.10725       -0.19803        2.70903
H          0.96826        2.21633       -0.73461
H          1.80043        1.68728       -2.31033
H          2.17261        0.49123        0.51424
H          3.14493       -0.30192       -2.32093
H          3.10164       -1.38054       -0.89807
H          6.14345        1.53300       -1.23726
H          4.39482        1.99721       -1.37025
H          7.01892        0.04975       -3.06843
H          5.71757       -0.64261       -4.09548
H          4.76243       -1.82143       -2.24439
H          6.37094       -2.42327       -0.42415
H          7.53603       -1.24157       -1.08995
H          7.55647       -2.48958       -3.25426
H          6.34753       -4.51684       -3.20758
H          4.62196       -1.15529        0.81103
H          4.33961        0.58497        0.92313
H          7.08308       -0.77764        0.89967
H          6.39929        2.21800        1.12983
H          7.57987        1.46396        0.02216
H          7.88586        1.48977        1.74992
H          5.44735        0.58666        3.10843
H          7.04595       -0.16131        3.27536
H          5.63868       -1.17230        2.90532
