79

O          1.86972        1.11021       -0.79063
C          3.23935        0.80005       -1.04644
C          3.26077       -0.54808       -1.75509
O          4.61718       -1.01792       -1.71201
C          4.83914       -2.18275       -2.46378
C          6.30385       -2.55899       -2.19034
N          6.63436       -3.90163       -2.71858
N          7.11348       -3.85712       -3.96493
C          7.46434       -4.99608       -4.53775
C          7.36048       -6.25083       -3.89880
C          6.82268       -6.25004       -2.61990
C          6.44706       -5.04761       -2.00463
C          5.89164       -4.98281       -0.60948
C          5.05199       -6.19901       -0.17344
C          4.38588       -5.99830        1.21235
C          3.00702       -5.30600        1.15568
C          2.93053       -3.93987        0.44584
C          1.57858       -3.29732        0.56641
C          1.26353       -2.15214        1.20141
C          2.24657       -1.27060        1.92592
C         -0.15754       -1.65558        1.22654
C          4.25401       -7.34899        1.92992
C          7.82433       -7.50260       -4.58375
O          8.34885       -7.15227       -5.84563
C          8.99491       -8.18642       -6.54820
C          8.24351       -9.28232       -6.97827
C          8.82749      -10.30143       -7.73772
C          8.02104      -11.47964       -8.21841
C         10.19018      -10.17658       -8.04984
C         10.92275       -9.07253       -7.62304
C         10.35527       -8.03836       -6.85872
C         11.21321       -6.84450       -6.46165
C         10.80674       -5.55923       -7.20823
C         11.30961       -6.61602       -4.94149
H          1.79733        2.05829       -0.60678
H          3.81963        0.71425       -0.10964
H          3.71969        1.56703       -1.67654
H          2.91990       -0.44805       -2.80070
H          2.59139       -1.25423       -1.23209
H          4.68903       -2.01602       -3.54831
H          4.16107       -3.00385       -2.15481
H          6.50319       -2.53221       -1.11427
H          6.98202       -1.86413       -2.69486
H          7.85761       -4.91015       -5.54931
H          6.69064       -7.17863       -2.06483
H          5.29414       -4.07395       -0.49373
H          6.74714       -4.86853        0.08181
H          5.69578       -7.09059       -0.12258
H          4.27909       -6.41311       -0.93108
H          5.05980       -5.36208        1.81611
H          2.65451       -5.17372        2.19028
H          2.28598       -5.99440        0.68057
H          3.14422       -4.08453       -0.63014
H          3.71175       -3.26949        0.83905
H          0.76098       -3.84818        0.08750
H          3.29365       -1.56757        1.79009
H          2.03559       -1.27102        3.00752
H          2.13717       -0.22941        1.58739
H         -0.84263       -2.34481        0.71692
H         -0.22805       -0.66970        0.73943
H         -0.51054       -1.52156        2.26169
H          3.62619       -8.04415        1.35153
H          3.78669       -7.22745        2.91620
H          5.23371       -7.82432        2.08048
H          6.97237       -8.20759       -4.66021
H          8.59124       -7.99871       -3.95562
H          7.17716       -9.32640       -6.74485
H          6.96341      -11.38801       -7.94139
H          8.40184      -12.41977       -7.79302
H          8.07704      -11.57628       -9.31213
H         10.68028      -10.95038       -8.64331
H         11.97919       -8.99702       -7.88937
H         12.23039       -7.09939       -6.80140
H          9.79837       -5.22874       -6.92204
H         10.80928       -5.71634       -8.29473
H         11.50771       -4.74341       -6.98127
H         10.38020       -6.19757       -4.53004
H         12.11241       -5.89995       -4.71705
H         11.53504       -7.55045       -4.40958
