56

O          2.94764        2.04868       -1.62177
C          4.02096        1.13181       -1.81825
C          3.60112       -0.17955       -1.16909
O          4.65860       -1.11171       -1.38700
C          4.38922       -2.40433       -0.87367
C          5.61281       -3.27189       -1.22160
C          6.37274       -3.86020       -0.01897
C          7.81688       -4.24409       -0.40116
N          7.67808       -5.67120       -0.75376
C          6.59852       -6.23105       -0.29003
C          5.81759       -5.22886        0.50698
C          4.29281       -5.43995        0.60761
C          3.76061       -5.20961        2.02297
O          3.90315       -3.81767        2.42329
C          4.93620       -3.49248        3.24634
O          5.85219       -4.24440        3.52684
C          4.80538       -2.06447        3.71893
S          5.68128       -0.93062        2.57332
C          2.27739       -5.52354        2.16888
O          1.96371       -5.49611        3.56845
C          1.09424       -4.52140        3.99394
O          0.57121       -3.71011        3.26323
C          0.88485       -4.62111        5.48623
S         -0.22078       -6.01492        5.92119
C          6.30233       -7.67353       -0.47811
C          6.32413       -8.45195        0.85772
H          3.17437        2.88613       -2.05224
H          4.95655        1.48819       -1.35009
H          4.21997        0.95497       -2.89062
H          2.65997       -0.54122       -1.62409
H          3.42369       -0.03309       -0.08693
H          3.46200       -2.81014       -1.32505
H          4.22877       -2.35587        0.21994
H          6.29766       -2.59215       -1.75002
H          5.34705       -4.05817       -1.94630
H          6.38727       -3.11781        0.79036
H          8.52153       -4.16284        0.44199
H          8.21999       -3.68476       -1.25422
H          8.39956       -6.19030       -1.25584
H          6.22329       -5.35819        1.53763
H          4.03459       -6.47468        0.33718
H          3.76283       -4.80084       -0.11168
H          4.33412       -5.81889        2.73917
H          5.21675       -1.96737        4.72893
H          3.75722       -1.74452        3.70706
H          6.92889       -1.22825        3.00902
H          2.06015       -6.53845        1.80439
H          1.65554       -4.79204        1.63233
H          0.47758       -3.67496        5.85670
H          1.83280       -4.84155        5.99308
H         -1.34888       -5.46099        5.41709
H          7.01640       -8.11369       -1.18901
H          5.30267       -7.75667       -0.93566
H          7.31135       -8.39396        1.33281
H          6.10051       -9.50654        0.65924
H          5.57782       -8.07478        1.56776
