48

C          0.56251        2.47658        0.86067
C          2.00723        2.22466        0.42404
C          2.76767        3.51496        0.09407
C          4.21992        3.25876       -0.33253
C          4.95260        4.55563       -0.62664
O          6.38678        4.27274       -0.86018
C          6.88373        4.43423       -2.07315
O          6.26291        4.84888       -3.05500
C          8.35302        4.03063       -2.14411
C          9.15926        4.88957       -3.13113
C          9.26189        6.33088       -2.59589
O          9.87070        7.22507       -3.50013
C          9.10928        7.33246       -4.70820
C          9.08855        5.97460       -5.40562
N          8.50118        4.91078       -4.50805
C          8.53641        3.55696       -5.20102
C          7.72107        3.55991       -6.39830
C          7.03113        3.54598       -7.38958
C          9.71563        8.44973       -5.56333
C         11.20692        8.33552       -5.83731
F         11.47414        7.20599       -6.64444
H          0.04720        1.53571        1.09402
H         -0.01260        2.98381        0.07219
H          0.52111        3.10873        1.75985
H          2.01861        1.56090       -0.45664
H          2.54528        1.68291        1.21989
H          2.75712        4.17832        0.97618
H          2.23528        4.05986       -0.70442
H          4.24165        2.61620       -1.22779
H          4.75324        2.71855        0.46572
H          4.95591        5.22929        0.24015
H          4.55580        5.08017       -1.50431
H          8.39648        2.95955       -2.39424
H          8.80761        4.11637       -1.14839
H         10.16888        4.47693       -3.27472
H          9.88570        6.31384       -1.69217
H          8.25587        6.69753       -2.31047
H          8.06870        7.61974       -4.45099
H         10.10729        5.65935       -5.66700
H          8.47841        5.99188       -6.31710
H          7.48386        5.09548       -4.28300
H          8.16352        2.80759       -4.49046
H          9.59047        3.33170       -5.42475
H          6.42235        3.52610       -8.27157
H          9.54843        9.39958       -5.03255
H          9.16524        8.51828       -6.51413
H         11.78740        8.21776       -4.91186
H         11.56556        9.21784       -6.38499
