51

C          1.09309        2.04126        0.18726
C          2.60276        1.99745        0.45121
C          2.94699        0.93687        1.49348
N          4.44202        0.75939        1.68101
C          5.10265        1.92625        2.38025
C          6.63191        1.73696        2.42081
N          7.01039        0.44100        2.98650
C          6.32584       -0.71173        2.40464
C          4.79621       -0.53853        2.37904
C          6.73979       -2.01595        3.11487
C          6.12847       -3.22209        2.39413
O          5.66737       -3.18409        1.26425
O          6.20891       -4.31956        3.15868
C          5.74729       -5.58293        2.56806
C          4.26536       -5.79551        2.81424
C          8.27295       -2.18822        3.16206
C          7.33049        1.91509        1.05114
C          7.02967        3.16929        0.20696
C          7.48205        4.48638        0.87135
F          6.80595        4.69110        2.04589
F          8.80711        4.46216        1.16509
F          7.24781        5.54727        0.08349
O          7.58595        3.05072       -1.08707
H          0.86072        2.80565       -0.56345
H          0.53288        2.28949        1.09924
H          0.72166        1.07841       -0.18963
H          2.94213        2.99101        0.78022
H          3.13496        1.77016       -0.48886
H          2.56479       -0.04738        1.18787
H          2.53050        1.17257        2.48300
H          4.84578        0.69942        0.73293
H          4.68736        1.94531        3.39703
H          4.80133        2.84540        1.86677
H          7.00917        2.50930        3.10426
H          6.92784        0.44815        4.00435
H          6.65441       -0.81422        1.35486
H          4.36911       -0.47782        3.39108
H          4.31718       -1.34824        1.81586
H          6.35376       -2.01478        4.14959
H          6.35834       -6.33954        3.07409
H          5.98822       -5.56919        1.49764
H          4.03319       -5.76130        3.88670
H          3.97416       -6.78525        2.43647
H          3.66077       -5.04466        2.28964
H          8.68749       -2.24831        2.14590
H          8.52847       -3.11039        3.69539
H          8.74938       -1.34382        3.67142
H          7.10363        1.06715        0.38536
H          8.41187        1.85393        1.24083
H          5.94645        3.28836        0.03503
H          8.55597        3.01148       -1.01996
