70

C          5.20317        3.27253       -1.31189
C          4.65518        1.92493       -0.83669
C          4.90028        1.66853        0.65624
C          4.35168        0.31664        1.13168
C          4.64324       -0.00699        2.59677
N          3.93225        0.91293        3.52109
C          3.39745        0.34730        4.55622
C          3.69409       -1.12430        4.58094
C          4.12686       -1.37002        3.10733
C          4.81185       -1.53036        5.58583
C          4.60301       -1.08505        7.04320
O          3.24622       -1.11601        7.46544
C          2.69472       -2.42055        7.67327
C          1.18744       -2.30075        7.66213
O          0.77171       -1.93265        6.33484
C          2.56267        1.15940        5.47809
O          2.51238        2.46676        4.96772
C          1.64223        3.37181        5.68748
C          1.61711        4.69047        4.93448
C          0.71503        5.74211        5.59371
C          0.64903        7.04811        4.79227
C         -0.25460        8.11224        5.42324
C         -0.35354        9.39795        4.59438
C         -1.26723       10.45926        5.21529
C         -1.38197       11.74030        4.38084
C         -2.31289       12.78518        5.00112
H          5.01543        3.41985       -2.38336
H          6.28908        3.34381       -1.15312
H          4.73279        4.11040       -0.77621
H          5.11581        1.11050       -1.41985
H          3.57308        1.87072       -1.04136
H          4.44277        2.49490        1.23133
H          5.98342        1.71815        0.86300
H          4.79997       -0.49296        0.53318
H          3.26328        0.25795        0.96137
H          5.72348        0.11819        2.78815
H          3.81347        1.92103        3.37629
H          2.77309       -1.66197        4.84971
H          3.25929       -1.67589        2.50461
H          4.88731       -2.15429        3.02121
H          5.78436       -1.13948        5.24685
H          4.88447       -2.62558        5.51909
H          4.91630       -0.03760        7.17030
H          5.24616       -1.69158        7.70629
H          3.03197       -2.82812        8.64364
H          3.01047       -3.12098        6.87935
H          0.87298       -1.53805        8.39538
H          0.75556       -3.27137        7.95855
H         -0.19371       -2.00591        6.28970
H          2.96991        1.09810        6.50618
H          1.56899        0.66419        5.54007
H          2.02348        3.49934        6.71674
H          0.63242        2.92665        5.74647
H          1.27208        4.49942        3.90503
H          2.64677        5.07636        4.85895
H          1.07612        5.95431        6.61447
H         -0.30453        5.33507        5.70822
H          0.29213        6.82725        3.77099
H          1.66812        7.45591        4.67503
H          0.11563        8.35542        6.43442
H         -1.26638        7.69332        5.56471
H         -0.71896        9.15023        3.58203
H          0.65668        9.82145        4.45469
H         -0.89922       10.71464        6.22467
H         -2.27476       10.03135        5.36221
H         -1.73820       11.48352        3.36872
H         -0.37732       12.17540        4.24493
H         -3.33686       12.39667        5.10475
H         -2.36460       13.69403        4.38624
H         -1.97017       13.08216        6.00334
