116

C          0.27460        2.59949        3.50464
C          1.78751        2.41937        3.35410
C          2.45369        3.53349        2.53905
C          3.96841        3.36444        2.38264
C          4.62657        4.47273        1.55430
C          6.14260        4.31284        1.39883
C          6.78656        5.41133        0.54675
C          8.30493        5.27117        0.39429
C          8.92608        6.35761       -0.48947
C         10.44881        6.25560       -0.63001
C         11.03930        7.33926       -1.53823
C         12.56906        7.31485       -1.63161
C         13.12216        8.39647       -2.56703
C         14.65141        8.50926       -2.55177
C         15.15330        9.60582       -3.49727
C         16.67321        9.88851       -3.35501
C         17.07588       11.02361       -4.24145
C         16.88397       12.34468       -3.77215
N         17.14207       13.45069       -4.45280
N         17.62406       13.28872       -5.68108
C         17.84146       12.08821       -6.23531
C         17.57527       10.89538       -5.55031
C         17.87232        9.58317       -6.23471
C         19.34874        9.44599       -6.67137
C         20.33220        9.65579       -5.51340
C         21.79008        9.64979       -5.98718
S         22.80969       10.44518       -4.71837
O         22.42564       11.83934       -4.63836
O         22.84817        9.61437       -3.53830
Cl        24.67471       10.36638       -5.61749
C         17.92850       14.55634       -6.40554
C         18.90635       15.44289       -5.63541
C         20.29899       14.84733       -5.40169
C         21.19646       15.83069       -4.63835
C         22.61828       15.33077       -4.36494
C         23.44650       16.35821       -3.58584
C         24.88959       15.93180       -3.29832
C         25.66608       16.99108       -2.50831
C         27.12739       16.63120       -2.22228
C         27.86660       17.72431       -1.44299
C         29.33963       17.41321       -1.16046
C         30.05758       18.53165       -0.39742
C         31.53602       18.24368       -0.11425
C         32.23851       19.37601        0.63969
H         -0.17313        1.78408        4.08961
H         -0.22512        2.61795        2.52436
H          0.03361        3.54455        4.01442
H          1.99733        1.44692        2.87687
H          2.25461        2.37121        4.35250
H          2.24247        4.50785        3.01474
H          1.98657        3.58080        1.53918
H          4.17976        2.38638        1.91510
H          4.43695        3.32731        3.38201
H          4.40984        5.45160        2.01767
H          4.15970        4.50464        0.55387
H          6.36181        3.32794        0.94987
H          6.61346        4.29972        2.39762
H          6.55594        6.39701        0.98839
H          6.31938        5.41465       -0.45399
H          8.54105        4.27799       -0.02659
H          8.77665        5.29556        1.39242
H          8.66742        7.35040       -0.08056
H          8.46452        6.31692       -1.49196
H         10.71782        5.25952       -1.02290
H         10.91299        6.32184        0.36976
H         10.71950        8.33114       -1.17236
H         10.60860        7.23954       -2.55023
H         12.90718        6.32162       -1.97402
H         12.99657        7.45022       -0.62272
H         12.69197        9.37253       -2.28174
H         12.77511        8.20248       -3.59672
H         15.10755        7.54289       -2.82560
H         14.98982        8.72884       -1.52483
H         14.60230       10.54039       -3.29788
H         14.93056        9.33858       -4.54368
H         17.24918        8.98044       -3.57835
H         16.89025       10.15564       -2.30949
H         16.49623       12.52362       -2.76684
H         18.24199       12.10315       -7.24830
H         17.22498        9.49363       -7.12178
H         17.59890        8.75293       -5.57218
H         19.57030       10.16748       -7.47524
H         19.48103        8.45036       -7.11946
H         20.19014        8.88603       -4.74024
H         20.12782       10.62592       -5.03403
H         21.94018       10.25016       -6.89503
H         22.19808        8.64279       -6.14059
H         16.96424       15.06340       -6.54865
H         18.32284       14.26271       -7.38711
H         18.44389       15.72476       -4.67771
H         18.98956       16.37345       -6.21928
H         20.76588       14.58826       -6.36827
H         20.22939       13.90439       -4.83144
H         20.71071       16.08079       -3.67888
H         21.24751       16.77802       -5.20308
H         23.11878       15.09647       -5.32055
H         22.57915       14.38149       -3.80652
H         22.93893       16.57807       -2.62980
H         23.45858       17.31178       -4.14295
H         25.40974       15.72686       -4.25049
H         24.89034       14.97864       -2.74111
H         25.14626       17.18140       -1.55262
H         25.63334       17.94686       -3.06084
H         27.65197       16.44164       -3.17537
H         27.17119       15.68241       -1.65900
H         27.34367       17.90426       -0.48696
H         27.79938       18.67380       -2.00321
H         29.86385       17.22742       -2.11458
H         29.41364       16.47200       -0.58751
H         29.53399       18.71591        0.55757
H         29.97499       19.47263       -0.97007
H         32.05806       18.05639       -1.06800
H         31.61973       17.30763        0.46369
H         32.20316       20.31686        0.07008
H         33.29549       19.14227        0.82766
H         31.76187       19.56371        1.61354
