47

F          0.70353       -0.89540        0.14999
C          1.99581       -0.40562       -0.05362
C          2.71361       -0.32353        1.28766
C          4.14846        0.23235        1.12839
C          4.85108        0.27196        2.45315
C          4.78010        1.39962        3.29114
C          5.40013        1.37734        4.52027
N          6.06497        0.27090        4.96111
C          6.16941       -0.85516        4.17984
C          5.56278       -0.83620        2.92415
C          6.85819       -2.06995        4.69846
C          5.86723       -3.23652        5.11576
N          4.80276       -2.84179        6.03518
N          5.18838       -3.71666        3.91830
N          6.73326       -4.26036        5.68910
C          6.68997        0.35652        6.27283
C          5.90312        0.26970        7.41883
C          6.49833        0.38112        8.67672
C          7.87753        0.58246        8.76370
C          8.66859        0.68604        7.61710
C          8.08162        0.58395        6.34718
O          8.73221        0.67856        5.16175
C         10.14969        0.92622        5.17575
H          1.90746        0.58465       -0.52970
H          2.50882       -1.09153       -0.74741
H          2.74860       -1.32621        1.74093
H          2.13369        0.32057        1.96661
H          4.11101        1.24353        0.69545
H          4.71530       -0.40351        0.43173
H          4.25473        2.30273        2.98189
H          5.40503        2.22329        5.20416
H          5.63465       -1.74034        2.32334
H          7.48242       -1.82388        5.56454
H          7.52095       -2.46619        3.91734
H          4.17712       -2.14038        5.63509
H          5.17084       -2.49817        6.92066
H          5.81912       -4.32616        3.39440
H          4.38047       -4.27546        4.19983
H          6.16049       -5.03126        6.03941
H          7.28282       -3.90743        6.47530
H          4.82756        0.11797        7.31824
H          5.88910        0.31392        9.57668
H          8.35247        0.66869        9.74115
H          9.73957        0.85501        7.71297
H         10.44096        0.99312        4.12359
H         10.68990        0.09725        5.65606
H         10.37968        1.87405        5.68328
