152

C         19.85751      -13.33680       -6.23247
C         19.58569      -11.94624       -5.65318
C         20.28765      -11.70065       -4.31297
C         20.02382      -10.31300       -3.72082
C         20.72227      -10.07575       -2.37804
C         20.43409       -8.70036       -1.76914
C         21.12478       -8.46479       -0.42208
C         20.76671       -7.12180        0.22135
C         21.43703       -6.88652        1.57864
C         20.98060       -5.59632        2.26603
C         21.61727       -5.36465        3.63982
C         21.07180       -4.12786        4.35978
C         21.66171       -3.91193        5.75640
C         21.01118       -2.75394        6.51826
C         21.55934       -2.56962        7.93562
C         20.92079       -1.40107        8.69166
C         21.40586       -1.28227       10.13812
C         20.79775       -0.09177       10.88566
C         21.24248       -0.04363       12.35482
C         20.64960        1.17367       13.04875
N         21.11509        1.42769       14.48572
C         22.63866        1.51549       14.56121
C         23.29426        2.51710       13.61748
C         24.82350        2.40827       13.75526
S         25.71211        3.10680       12.34227
C         25.62289        1.75143       11.15675
S         24.90579        0.28064       11.52462
N         26.19967        2.02453        9.96750
C         26.90999        3.28137        9.66847
C         26.22114        4.16277        8.61717
C         24.80269        4.61228        8.98537
C         24.10229        5.34762        7.84058
C         26.20691        1.00382        8.90118
C         24.92581        0.95261        8.05751
C         24.95114       -0.21383        7.06365
C         23.78823       -0.16713        6.07077
C         20.44882        2.71685       14.95187
C         20.64196        2.99540       16.43616
C         20.16100        1.82209       17.29639
C         20.81912        0.50228       16.87096
C         20.63646        0.27868       15.36798
C         20.25807       -0.70680       17.64523
C         20.97200       -2.03706       17.37398
C         20.50180       -3.17906       18.28129
C         21.19410       -4.50925       17.96819
C         20.73269       -5.67640       18.84608
C         21.42067       -6.99957       18.49521
C         20.95133       -8.18923       19.33796
C         21.63693       -9.50631       18.96037
C         21.16610      -10.70959       19.78285
C         21.84156      -12.02496       19.38256
C         21.37272      -13.23499       20.19769
C         22.05287      -14.54331       19.78665
H         19.34009      -13.48495       -7.19033
H         19.51891      -14.12791       -5.54661
H         20.93248      -13.49267       -6.40811
H         18.49897      -11.80609       -5.52393
H         19.90384      -11.17618       -6.37631
H         21.37544      -11.84265       -4.44130
H         19.96815      -12.47179       -3.58959
H         18.93581      -10.17118       -3.59448
H         20.34545       -9.54027       -4.44128
H         21.81215      -10.19945       -2.50625
H         20.41312      -10.85989       -1.66426
H         19.34332       -8.58269       -1.64160
H         20.73967       -7.91243       -2.48001
H         22.21916       -8.53138       -0.55379
H         20.85533       -9.28069        0.27191
H         19.67077       -7.06471        0.34646
H         21.03300       -6.30026       -0.46685
H         22.53386       -6.87140        1.45124
H         21.22318       -7.74347        2.24196
H         19.88203       -5.62031        2.37889
H         21.19578       -4.73335        1.61115
H         22.71283       -5.27865        3.53091
H         21.44653       -6.25343        4.27310
H         19.97421       -4.21883        4.44370
H         21.25147       -3.23059        3.74120
H         22.74936       -3.73619        5.67727
H         21.55014       -4.83956        6.34509
H         19.92149       -2.92405        6.57230
H         21.13945       -1.81921        5.94561
H         22.65283       -2.42456        7.89515
H         21.40298       -3.50100        8.50746
H         19.82266       -1.51599        8.68159
H         21.12870       -0.45795        8.15614
H         22.50535       -1.19226       10.15558
H         21.16511       -2.21441       10.67834
H         19.69640       -0.13637       10.82587
H         21.09823        0.84501       10.38490
H         22.34266       -0.00766       12.37448
H         20.93113       -0.97261       12.85666
H         19.55474        1.09960       13.11376
H         20.88429        2.08909       12.49000
H         23.00793        0.50659       14.33790
H         22.88744        1.73526       15.60516
H         22.97755        3.54957       13.82359
H         23.03568        2.28183       12.57706
H         25.13572        1.35631       13.83549
H         25.20120        2.96537       14.62475
H         27.92001        3.00717        9.32445
H         27.04348        3.83998       10.60412
H         26.20769        3.63896        7.64746
H         26.86664        5.04315        8.46613
H         24.84600        5.25598        9.87844
H         24.20350        3.73377        9.27581
H         24.66783        6.23690        7.52662
H         23.09709        5.68045        8.13320
H         23.99319        4.69818        6.95897
H         26.37714        0.02921        9.37954
H         27.07342        1.22505        8.26105
H         24.79781        1.89999        7.51159
H         24.05745        0.84831        8.72691
H         24.93361       -1.16344        7.62338
H         25.90480       -0.20740        6.50921
H         22.82104       -0.11443        6.58973
H         23.77044       -1.05841        5.42958
H         23.85775        0.71342        5.41543
H         19.38103        2.59188       14.72153
H         20.83657        3.52384       14.31911
H         20.07458        3.90825       16.66851
H         21.69446        3.23446       16.65385
H         19.06473        1.72612       17.20803
H         20.37055        2.01849       18.35707
H         21.89881        0.55548       17.09593
H         19.56803        0.14931       15.13509
H         21.17034       -0.61334       15.02543
H         19.17920       -0.80797       17.43156
H         20.32957       -0.47138       18.71952
H         22.06069       -1.89854       17.49994
H         20.82420       -2.34747       16.32497
H         19.40935       -3.30052       18.18022
H         20.68040       -2.90590       19.33547
H         22.28636       -4.38442       18.07269
H         21.02105       -4.76556       16.90765
H         19.63913       -5.79579       18.75032
H         20.91814       -5.43449       19.90711
H         22.51309       -6.88243       18.60647
H         21.25027       -7.22347       17.42710
H         19.85813       -8.30319       19.23120
H         21.12894       -7.97548       20.40657
H         22.72978       -9.39334       19.07261
H         21.46502       -9.70972       17.88843
H         20.07161      -10.81565       19.68019
H         21.35009      -10.51507       20.85419
H         22.93630      -11.91942       19.48548
H         21.65872      -12.21663       18.31012
H         20.27910      -13.33940       20.09452
H         21.55673      -13.04393       21.26867
H         21.85597      -14.78128       18.73046
H         21.69699      -15.39054       20.38887
H         23.14444      -14.48275       19.91183
