71

C          1.99126       -0.92133       -0.80557
C          3.42798       -0.76008       -0.30222
C          3.64712        0.52444        0.50622
C          5.08305        0.68876        1.01526
C          5.30839        1.98440        1.80477
C          6.75062        2.12806        2.31126
C          6.98329        3.42779        3.06098
O          8.37458        3.46948        3.47241
C          8.77283        4.63193        4.17952
C         10.29254        4.49138        4.41668
C         11.10806        4.72734        3.11661
O         12.19457        3.80314        3.20905
C         11.66868        2.57831        3.60988
N         10.55814        2.99441        4.62969
C         12.72357        1.70153        4.26452
C         13.51915        0.71225        3.38071
C         14.24872        1.38497        2.19777
F         15.03889        2.41213        2.60962
F         15.02059        0.50668        1.53875
F         13.34505        1.89173        1.30707
O         14.40842       -0.01795        4.18317
C         10.74920        5.34426        5.61307
C         12.27312        5.42156        5.87703
O         12.63579        6.72913        6.37936
C         12.71634        7.72934        5.45303
O         12.49235        7.56529        4.26881
C         13.07252        9.03863        6.10966
S         11.56690        9.81428        6.81284
C         12.73726        4.44582        6.94694
O         14.16634        4.30074        6.84064
C         14.66798        3.05536        7.10265
O         13.98379        2.10675        7.42007
C         16.17227        3.04917        6.92068
S         16.77340        1.65099        5.91006
H          1.86935       -1.85046       -1.37837
H          1.70060       -0.08723       -1.46129
H          1.27535       -0.95024        0.02918
H          4.12271       -0.77189       -1.15909
H          3.70060       -1.63020        0.31898
H          2.95062        0.53939        1.36287
H          3.37811        1.39577       -0.11656
H          5.77954        0.65988        0.15912
H          5.34670       -0.17576        1.64958
H          4.61069        2.01992        2.65868
H          5.05512        2.84799        1.16635
H          7.44949        2.08101        1.46020
H          6.99610        1.28146        2.97425
H          6.34200        3.50231        3.95724
H          6.78314        4.30322        2.41890
H          8.22533        4.72514        5.13628
H          8.59001        5.54986        3.59225
H         11.52740        5.73919        3.06856
H         10.48862        4.51870        2.22798
H         11.11035        2.07805        2.79785
H         10.83356        2.77348        5.59263
H          9.66123        2.52285        4.38239
H         12.25967        1.07160        5.03793
H         13.43727        2.36508        4.77065
H         12.83540       -0.02233        2.92425
H         15.03108        0.59797        4.63623
H         10.21651        5.02209        6.52367
H         10.39471        6.36519        5.40994
H         12.83581        5.24430        4.95124
H         13.54377        9.70452        5.38033
H         13.74515        8.87841        6.96050
H         11.04536       10.20949        5.62751
H         12.28147        3.44884        6.84582
H         12.48575        4.82535        7.94901
H         16.65122        3.01510        7.90903
H         16.50299        3.96266        6.41377
H         16.51932        0.68491        6.82501
