63

C          3.81640        0.85110       -1.07285
C          3.67278       -0.66518       -1.26003
C          3.11024       -1.35664       -0.00279
N          2.38591       -2.69358       -0.33331
C          1.92928       -3.41081        0.95548
C          2.91236       -4.54541        1.18627
C          3.21990       -5.01229       -0.23574
C          3.36054       -3.71991       -1.04472
C          3.17293       -3.87644       -2.55267
C          4.26471       -4.77065       -3.16625
C          4.09522       -4.82506       -4.68725
S          5.35259       -5.92649       -5.39024
C          4.99029       -5.81318       -7.11932
S          3.88225       -4.79927       -7.78438
N          5.78487       -6.68789       -7.86903
C          6.61594       -7.71770       -7.40428
N          7.21028       -8.34050       -8.38345
C          6.77294       -7.71316       -9.54684
C          5.89731       -6.70559       -9.26309
C          1.12573       -2.41588       -1.19413
C          0.14964       -1.40950       -0.64906
C          0.15215       -0.09779       -1.15409
C         -0.78812        0.83696       -0.72926
C         -1.77357        0.49686        0.21253
C         -1.78655       -0.81928        0.70009
C         -0.84951       -1.75851        0.27357
C         -2.78781        1.50857        0.67091
C          4.22237       -1.47789        1.04698
O          3.67888       -1.59714        2.35780
H          4.18912        1.31084       -1.99633
H          4.52230        1.11416       -0.27401
H          2.85088        1.31457       -0.82843
H          4.64852       -1.10342       -1.52596
H          3.01837       -0.84081       -2.12269
H          2.31007       -0.73860        0.42928
H          0.93650       -3.82036        0.74400
H          1.85518       -2.68269        1.76575
H          2.46040       -5.33005        1.80508
H          3.81433       -4.19705        1.70673
H          2.39523       -5.62449       -0.63546
H          4.13510       -5.61335       -0.29941
H          4.35782       -3.29675       -0.86419
H          3.21429       -2.89864       -3.05419
H          2.18976       -4.31654       -2.77747
H          4.20633       -5.78618       -2.74652
H          5.26208       -4.37679       -2.91054
H          4.21279       -3.83391       -5.14774
H          3.10402       -5.20642       -4.97226
H          6.70273       -7.95811       -6.34875
H          7.12274       -8.03557      -10.52240
H          5.34773       -6.00147       -9.87389
H          0.65609       -3.39938       -1.31579
H          1.47574       -2.08892       -2.17578
H          0.87820        0.18915       -1.91702
H         -0.77249        1.84321       -1.15187
H         -2.55989       -1.12165        1.40805
H         -0.92839       -2.78113        0.64553
H         -3.14325        2.12570       -0.16487
H         -2.34640        2.19194        1.41265
H         -3.65518        1.02770        1.13912
H          4.81842       -0.55651        0.95961
H          4.90525       -2.31653        0.81312
H          4.37325       -1.40283        3.00622
