119

C          6.23336        2.19993       -2.86358
C          6.90904        2.46324       -1.51519
C          6.63366        1.37102       -0.47602
C          7.30086        1.62536        0.87940
C          7.03387        0.52333        1.90911
C          7.71459        0.76663        3.26040
C          7.44867       -0.34813        4.27546
C          8.12664       -0.08204        5.62632
N          7.88976       -1.14547        6.61392
C          6.84641       -1.14113        7.47295
S          6.52991       -2.35136        8.58357
S          5.82444        0.33606        7.31523
C          4.47014       -0.01880        8.45988
C          3.40417       -0.92917        7.84816
C          2.28690       -1.25068        8.84795
C          1.42092       -2.44557        8.40353
C          0.76091       -2.27661        7.02035
C         -0.40903       -1.34552        7.28638
N         -0.94021       -1.79437        8.66199
C          0.21641       -2.75039        9.30827
C          0.29650       -2.57220       10.81650
C          0.83374       -3.78690       11.61999
C          2.23545       -4.30315       11.20526
C          2.22262       -5.47606       10.21874
C          0.80807       -3.39977       13.10638
C         -1.39794       -0.70486        9.47785
N         -0.79599        0.40963        9.71190
N         -1.64970        1.13109       10.53885
C         -2.70327        0.37591       10.75130
O         -2.60670       -0.84762       10.07797
S         -4.04276        0.73513       11.77254
C         -5.37117       -0.32411       11.06322
C         -6.67787        0.01675       11.78305
C         -7.86780       -0.73928       11.17529
C         -9.19502       -0.42336       11.87455
C        -10.39635       -1.13234       11.24044
C        -11.72653       -0.82588       11.93863
C        -12.92807       -1.49717       11.26835
C          8.86620       -2.24634        6.61321
C         10.06647       -1.97181        7.52597
C         11.12753       -3.07278        7.43878
C         12.34332       -2.80171        8.33117
C         13.43327       -3.87360        8.23226
C         14.65484       -3.58044        9.10947
C         15.74899       -4.65037        9.02608
C         16.97363       -4.33020        9.88739
H          6.45085        2.99780       -3.58676
H          5.13977        2.13788       -2.75706
H          6.57547        1.25130       -3.30357
H          6.57308        3.43592       -1.11742
H          7.99840        2.55807       -1.66074
H          6.97455        0.39831       -0.87304
H          5.54263        1.27109       -0.33400
H          6.95466        2.59367        1.28195
H          8.39023        1.73218        0.73518
H          7.37118       -0.44572        1.50134
H          5.94495        0.42262        2.06387
H          7.36987        1.72987        3.67556
H          8.80248        0.87509        3.10684
H          7.80477       -1.31135        3.87425
H          6.36461       -0.45729        4.43734
H          7.79650        0.88065        6.04444
H          9.21630        0.00139        5.49762
H          4.06846        0.97083        8.72522
H          4.91343       -0.48280        9.35422
H          3.89832       -1.86274        7.53551
H          3.00087       -0.44960        6.94254
H          1.67691       -0.35291        9.04059
H          2.75050       -1.50904        9.81171
H          2.05995       -3.34020        8.38581
H          0.41473       -3.24728        6.63434
H          1.43600       -1.84927        6.27062
H         -1.23610       -1.39768        6.56929
H         -0.09803       -0.30308        7.41221
H         -1.74988       -2.41020        8.52257
H         -0.17916       -3.74934        9.06535
H         -0.71790       -2.38409       11.20431
H          0.88765       -1.67719       11.05878
H          0.11677       -4.61586       11.47467
H          2.75517       -4.63730       12.11530
H          2.85180       -3.47574       10.81921
H          1.72998       -6.35294       10.66281
H          3.24392       -5.77284        9.94564
H          1.69152       -5.25300        9.28095
H          1.53671       -2.60257       13.31802
H          1.06782       -4.26165       13.73452
H         -0.18232       -3.04096       13.42192
H         -5.10079       -1.37892       11.20285
H         -5.44089       -0.10278        9.98925
H         -6.86138        1.10163       11.72086
H         -6.58593       -0.22750       12.85392
H         -7.67795       -1.82570       11.21983
H         -7.94996       -0.48479       10.10433
H         -9.36425        0.66720       11.85716
H         -9.12199       -0.70243       12.93987
H        -10.22484       -2.22324       11.24658
H        -10.46917       -0.84384       10.17688
H        -11.88025        0.26626       11.96234
H        -11.66435       -1.14487       12.99271
H        -13.04494       -1.15941       10.22794
H        -13.86244       -1.26792       11.79787
H        -12.81712       -2.59166       11.25027
H          9.19707       -2.38205        5.57164
H          8.34273       -3.15791        6.92982
H          9.70485       -1.87404        8.56147
H         10.51962       -1.00272        7.25649
H         11.46122       -3.18031        6.39129
H         10.67643       -4.04145        7.71512
H         12.01134       -2.71281        9.38023
H         12.77460       -1.81989        8.06763
H         13.75495       -3.97097        7.18018
H         13.00886       -4.85464        8.50966
H         14.33239       -3.47228       10.16029
H         15.08068       -2.60196        8.82438
H         16.05962       -4.77130        7.97433
H         15.32772       -5.62386        9.32937
H         17.45247       -3.39274        9.56730
H         17.72909       -5.12555        9.82682
H         16.69831       -4.21378       10.94629
