68

C          0.72500       -0.23018        0.08475
C          2.25130       -0.20252        0.19709
C          2.82398        1.20472        0.40337
C          4.35183        1.22855        0.51223
C          4.94302        2.62705        0.72102
C          6.47176        2.61956        0.82635
C          7.09149        4.00178        1.05798
C          8.61984        3.95171        1.17353
C          9.25368        5.31698        1.47607
C         10.76105        5.21517        1.60780
O         11.27877        6.51796        2.02180
C         12.65087        6.53296        2.18609
S         13.08612        8.32853        2.31184
C         12.15632        8.81360        3.81304
C         12.32290       10.29753        4.13905
C         11.46919       10.67999        5.35994
C         11.63057       12.15166        5.75897
C         10.82589       12.52264        7.00961
C         10.98429       13.99034        7.42446
C         10.20120       14.34474        8.69104
C         14.81444        8.26055        2.89414
C         15.78685        7.84260        1.78611
C         17.20721        7.74566        2.33702
F         17.23771        6.78952        3.36122
H          0.35104       -1.25289       -0.06069
H          0.37538        0.37460       -0.76524
H          0.24945        0.17080        0.99226
H          2.69583       -0.64387       -0.71110
H          2.57111       -0.84848        1.03244
H          2.38385        1.64752        1.31444
H          2.50521        1.85405       -0.43119
H          4.78766        0.78324       -0.39952
H          4.66648        0.57493        1.34500
H          4.51434        3.07363        1.63542
H          4.63445        3.28483       -0.11032
H          6.89676        2.17953       -0.09279
H          6.77361        1.94733        1.64885
H          6.67005        4.44352        1.97774
H          6.80577        4.68000        0.23555
H          9.04199        3.54494        0.23859
H          8.89680        3.23849        1.96904
H          8.84320        5.71717        2.41708
H          9.00516        6.04004        0.68330
H         11.23828        4.93703        0.65119
H         11.04507        4.46936        2.37117
H         13.21256        6.15393        1.31089
H         13.00993        6.03615        3.10955
H         12.48416        8.15367        4.63027
H         11.11845        8.56146        3.54991
H         12.02885       10.90753        3.27010
H         13.37811       10.53060        4.35388
H         11.74559       10.03723        6.21308
H         10.40867       10.46795        5.14391
H         11.32419       12.79605        4.91712
H         12.69883       12.36682        5.93588
H         11.13500       11.87247        7.84685
H          9.75745       12.30545        6.83628
H         10.65922       14.63946        6.59416
H         12.05434       14.20933        7.57911
H          9.12345       14.16937        8.55850
H         10.33429       15.40061        8.96109
H         10.53183       13.73923        9.54791
H         14.85551        7.58162        3.75763
H         15.02121        9.28357        3.24123
H         15.77686        8.57032        0.96040
H         15.51387        6.86240        1.36823
H         17.55240        8.70088        2.76357
H         17.90620        7.42581        1.55133
