53

N          1.46813        0.12875        0.56540
C          2.58666        0.11824       -0.19065
N          3.15738       -1.04459       -0.52660
C          4.36492       -1.12289       -1.36420
C          5.22405        0.12911       -1.14933
C          4.33453        1.35238       -1.46466
N          3.12262        1.26598       -0.61497
C          4.99148        2.72293       -1.27459
C          4.12936        3.90742       -1.73402
C          4.86327        5.24574       -1.60226
C          4.03198        6.43647       -2.10861
N          4.71861        7.70391       -1.95134
C          4.63185        8.52635       -0.84538
C          5.53717        9.55819       -1.00416
C          6.20369        9.35096       -2.24434
C          5.68440        8.19932       -2.80467
C          5.87256        0.15582        0.25705
C          7.34072        0.60053        0.26889
C          7.89668        0.65153        1.69575
C          9.37479        1.04464        1.74182
S          9.93377        1.11488        3.45607
O          9.30503        2.24361        4.11402
O          9.86398       -0.21564        4.00502
O         11.50610        1.46639        3.25284
H          1.13018       -0.71828        1.00447
H          1.08802        0.99994        0.91364
H          2.71763       -1.90504       -0.22001
H          4.07300       -1.23538       -2.42003
H          4.91302       -2.02562       -1.06630
H          6.01282        0.10258       -1.91640
H          4.00850        1.27561       -2.51739
H          2.66872        2.13666       -0.35753
H          5.92309        2.71579       -1.86101
H          5.28616        2.85657       -0.22126
H          3.19146        3.96825       -1.14888
H          3.82050        3.74993       -2.78171
H          5.80822        5.20748       -2.16710
H          5.13712        5.42694       -0.55051
H          3.07735        6.49747       -1.56317
H          3.78291        6.30152       -3.17315
H          3.92109        8.31632       -0.05225
H          5.68746       10.38173       -0.31388
H          6.96453        9.98445       -2.68846
H          5.90626        7.70061       -3.74288
H          5.81317       -0.85083        0.70113
H          5.29030        0.80420        0.93285
H          7.44664        1.58952       -0.20519
H          7.93563       -0.09866       -0.34244
H          7.77330       -0.33054        2.17855
H          7.31401        1.37168        2.29224
H          9.55832        2.03969        1.31257
H         10.02095        0.31111        1.23959
H         11.63878        2.38489        3.55715
