92

C          8.11219      -17.67140        3.69961
C          8.12313      -16.94606        2.35169
C          9.10495      -15.76948        2.29720
C          9.10097      -15.03516        0.95279
C         10.11913      -13.89346        0.85684
C         10.06536      -13.15745       -0.48551
C         11.10047      -12.03844       -0.64579
C         10.96115      -11.30095       -1.98142
C         11.99663      -10.19758       -2.22531
C         11.75534       -9.45898       -3.54604
C         12.75850       -8.34266       -3.85699
C         12.40536       -7.59243       -5.14807
C         13.30389       -6.39294       -5.49108
C         14.79527       -6.69813       -5.70902
C         15.05205       -7.73426       -6.80666
N         16.50267       -7.88147       -7.01932
C         17.14694       -8.03621       -8.19589
N         18.31820       -7.40115       -8.37022
C         19.34198       -7.66700       -9.40646
C         20.69452       -7.96379       -8.74336
C         21.86828       -8.00347       -9.72937
C         23.22621       -8.12908       -9.02806
C         24.41573       -8.07537       -9.99205
C         25.77416       -8.20992       -9.29449
C         26.96046       -8.11010      -10.25663
C         18.83414       -8.76948      -10.34162
C         17.32118       -8.64221      -10.51318
N         16.64197       -8.77366       -9.20666
C         15.79166       -9.95475       -8.98340
C         16.53414      -11.30905       -9.02068
C         17.44733      -11.66016       -7.84424
C         16.75680      -11.92623       -6.46255
Br        15.36547      -13.29429       -6.54149
F         17.67159      -12.26426       -5.53938
F         16.17891      -10.76027       -6.03805
Br        18.51477      -13.23440       -8.32337
F         18.33665      -10.61744       -7.60006
H          7.40594      -18.51319        3.69831
H          7.81944      -16.99407        4.51594
H          9.10667      -18.07315        3.94593
H          7.10747      -16.58144        2.12122
H          8.37408      -17.66181        1.55005
H         10.12434      -16.13656        2.51253
H          8.86550      -15.05567        3.10536
H          8.08892      -14.63655        0.76041
H          9.29539      -15.76058        0.14255
H         11.13518      -14.29560        1.01716
H          9.94586      -13.17457        1.67696
H          9.05441      -12.73473       -0.62327
H         10.19663      -13.88760       -1.30399
H         12.11693      -12.46081       -0.55750
H         10.99846      -11.31808        0.18466
H          9.94989      -10.86155       -2.04199
H         11.01644      -12.03397       -2.80600
H         13.01172      -10.63273       -2.21912
H         11.97086       -9.47486       -1.39116
H         10.73837       -9.02967       -3.53360
H         11.75958      -10.18904       -4.37536
H         13.77284       -8.77628       -3.92102
H         12.78904       -7.62710       -3.01676
H         11.37227       -7.21892       -5.06457
H         12.38220       -8.30584       -5.99105
H         13.23362       -5.64702       -4.68378
H         12.90933       -5.89688       -6.39298
H         15.24726       -7.06119       -4.77013
H         15.31512       -5.76282       -5.97169
H         14.59301       -7.41899       -7.75590
H         14.60787       -8.69910       -6.51809
H         17.08724       -7.60080       -6.23733
H         18.53251       -6.66057       -7.70902
H         19.43218       -6.73155       -9.98634
H         20.61899       -8.91203       -8.18632
H         20.89238       -7.17619       -7.99521
H         21.86002       -7.08330      -10.33993
H         21.74556       -8.84166      -10.43517
H         23.25639       -9.07152       -8.45449
H         23.32548       -7.31872       -8.28463
H         24.38724       -7.12386      -10.55182
H         24.31376       -8.87350      -10.74837
H         25.81236       -9.17257       -8.75725
H         25.86173       -7.42888       -8.52015
H         26.92250       -8.89770      -11.02366
H         27.91575       -8.21196       -9.72486
H         26.97271       -7.14134      -10.77774
H         19.08336       -9.75861       -9.93167
H         19.33611       -8.68109      -11.31335
H         16.92114       -9.41803      -11.17576
H         17.05262       -7.66928      -10.95403
H         15.04126       -9.96969       -9.78616
H         15.24677       -9.83602       -8.04519
H         17.14511      -11.38248       -9.93019
H         15.77829      -12.10204       -9.10139
